/*---------------------------------------------------------------------------*\
  =========                 |
  \\      /  F ield         | OpenFOAM: The Open Source CFD Toolbox
   \\    /   O peration     | Website:  https://openfoam.org
    \\  /    A nd           | Version:  10
     \\/     M anipulation  |
\*---------------------------------------------------------------------------*/
Build  : 10-c4cf895ad8fa
Exec   : idealCompositionalFoam
Date   : May 20 2025
Time   : 17:48:40
Host   : "HWLAP0350-EPS"
PID    : 17935
I/O    : uncollated
Case   : /home/ap2095/OpenFOAM/ap2095-10/run/idealCompositionalFoam/tutorials/idealCompositionalFoam-tutorials/coreInjection/co2InjectionCore
nProcs : 1
sigFpe : Enabling floating point exception trapping (FOAM_SIGFPE).
fileModificationChecking : Monitoring run-time modified files using timeStampMaster (fileModificationSkew 10)
allowSystemOperations : Allowing user-supplied system call operations

// * * * * * * * * * * * * * * * * * * * * * * * * * * * * * * * * * * * * * //

**********************************
Current version of PMF is 2310.0.0
**********************************

Create time

Create mesh for time = 0


Reading g
Reading pressure field p

Reading saturation field Sb

Reading CO2 field xCO2

Reading CO2 field yCO2

Reading H2O field xH2O

Reading H2O field yH2O

Reading thermophysicalProperties

Reading transportProperties

Computing field phia from field Ua

Computing field phib from field Ub

Selecting porousMedium model => simplePorosity

Selecting capillarity model for field Sb => BrooksAndCorey

Brooks and Corey parameters for capillarity pressure model
{
    Sbmin 1e-06
    Sbmax 0.999999
    pc0 5
    alpha 0.2
    hd 0
} 

Selecting relativePermeability model for field Sb => BrooksAndCorey

Brooks and Corey parameters for relative permeability model
{
    Sbmin 1e-06
    Sbmax 0.999999
    n 4
    kramax 1
    krbmax 1
} 


Reading field U
Reading/calculating face flux field phi


Reading Event file 'injection.evt' ...OK!
{
  number of dates       = 2
  number of coordinates = 1
  number datas          = 2
}

Starting time loop

Coats CFL Number mean: 0 max: 0
deltaT = 0.00011999
Time = 0.00011999

diagonal:  Solving for Sb, Initial residual = 0, Final residual = 0, No Iterations 0
Saturation b: dimensions      [0 0 0 0 0 0 0];

internalField   nonuniform List<scalar> 
100
(
0.999901
0.999999
0.999999
0.999999
0.999999
0.999999
0.999999
0.999999
0.999999
0.999999
0.999999
0.999999
0.999999
0.999999
0.999999
0.999999
0.999999
0.999999
0.999999
0.999999
0.999999
0.999999
0.999999
0.999999
0.999999
0.999999
0.999999
0.999999
0.999999
0.999999
0.999999
0.999999
0.999999
0.999999
0.999999
0.999999
0.999999
0.999999
0.999999
0.999999
0.999999
0.999999
0.999999
0.999999
0.999999
0.999999
0.999999
0.999999
0.999999
0.999999
0.999999
0.999999
0.999999
0.999999
0.999999
0.999999
0.999999
0.999999
0.999999
0.999999
0.999999
0.999999
0.999999
0.999999
0.999999
0.999999
0.999999
0.999999
0.999999
0.999999
0.999999
0.999999
0.999999
0.999999
0.999999
0.999999
0.999999
0.999999
0.999999
0.999999
0.999999
0.999999
0.999999
0.999999
0.999999
0.999999
0.999999
0.999999
0.999999
0.999999
0.999999
0.999999
0.999999
0.999999
0.999999
0.999999
0.999999
0.999999
0.999999
0.999999
)
;

boundaryField
{
    inlet
    {
        type            zeroGradient;
    }
    outlet
    {
        type            zeroGradient;
    }
    yzfaces
    {
        type            empty;
    }
}

Saturation b:  Min(Sb) = 0.999901 Max(Sb) = 0.999999
DILUPBiCGStab:  Solving for yCO2, Initial residual = 1, Final residual = 0, No Iterations 1
yH2O:  Min(yH2O) = 0.010106 Max(yH2O) = 1
DILUPBiCGStab:  Solving for xCO2, Initial residual = 0, Final residual = 0, No Iterations 0
xCO2:  Min(xCO2) = 0 Max(xCO2) = 0
DICPCG:  Solving for p, Initial residual = 1, Final residual = 5.5408e-13, No Iterations 1
Sb_error is = 1.11022e-16
Sb evaporation:  Min(Sb) = 0.999901 Max(Sb) = 0.999999
ExecutionTime = 0.046875 s  ClockTime = 0 s

Coats CFL Number mean: 6.48381e-17 max: 6.48381e-15
deltaT = 0.000143971
Time = 0.000263962

diagonal:  Solving for Sb, Initial residual = 0, Final residual = 0, No Iterations 0
Saturation b: dimensions      [0 0 0 0 0 0 0];

internalField   nonuniform List<scalar> 
100
(
0.999784
0.999999
0.999999
0.999999
0.999999
0.999999
0.999999
0.999999
0.999999
0.999999
0.999999
0.999999
0.999999
0.999999
0.999999
0.999999
0.999999
0.999999
0.999999
0.999999
0.999999
0.999999
0.999999
0.999999
0.999999
0.999999
0.999999
0.999999
0.999999
0.999999
0.999999
0.999999
0.999999
0.999999
0.999999
0.999999
0.999999
0.999999
0.999999
0.999999
0.999999
0.999999
0.999999
0.999999
0.999999
0.999999
0.999999
0.999999
0.999999
0.999999
0.999999
0.999999
0.999999
0.999999
0.999999
0.999999
0.999999
0.999999
0.999999
0.999999
0.999999
0.999999
0.999999
0.999999
0.999999
0.999999
0.999999
0.999999
0.999999
0.999999
0.999999
0.999999
0.999999
0.999999
0.999999
0.999999
0.999999
0.999999
0.999999
0.999999
0.999999
0.999999
0.999999
0.999999
0.999999
0.999999
0.999999
0.999999
0.999999
0.999999
0.999999
0.999999
0.999999
0.999999
0.999999
0.999999
0.999999
0.999999
0.999999
0.999999
)
;

boundaryField
{
    inlet
    {
        type            zeroGradient;
    }
    outlet
    {
        type            zeroGradient;
    }
    yzfaces
    {
        type            empty;
    }
}

Saturation b:  Min(Sb) = 0.999784 Max(Sb) = 0.999999
DILUPBiCGStab:  Solving for yCO2, Initial residual = 0.00277868, Final residual = 0, No Iterations 1
yH2O:  Min(yH2O) = 0.00461939 Max(yH2O) = 1
DILUPBiCGStab:  Solving for xCO2, Initial residual = 0, Final residual = 0, No Iterations 0
xCO2:  Min(xCO2) = 0 Max(xCO2) = 0
DICPCG:  Solving for p, Initial residual = 4.65459e-06, Final residual = 6.66207e-22, No Iterations 1
Sb_error is = 1.11022e-16
Sb evaporation:  Min(Sb) = 0.999784 Max(Sb) = 0.999999
ExecutionTime = 0.046875 s  ClockTime = 0 s

Coats CFL Number mean: 8.28701e-16 max: 8.28701e-14
deltaT = 0.000172755
Time = 0.000436717

diagonal:  Solving for Sb, Initial residual = 0, Final residual = 0, No Iterations 0
Saturation b: dimensions      [0 0 0 0 0 0 0];

internalField   nonuniform List<scalar> 
100
(
0.999642
0.999999
0.999999
0.999999
0.999999
0.999999
0.999999
0.999999
0.999999
0.999999
0.999999
0.999999
0.999999
0.999999
0.999999
0.999999
0.999999
0.999999
0.999999
0.999999
0.999999
0.999999
0.999999
0.999999
0.999999
0.999999
0.999999
0.999999
0.999999
0.999999
0.999999
0.999999
0.999999
0.999999
0.999999
0.999999
0.999999
0.999999
0.999999
0.999999
0.999999
0.999999
0.999999
0.999999
0.999999
0.999999
0.999999
0.999999
0.999999
0.999999
0.999999
0.999999
0.999999
0.999999
0.999999
0.999999
0.999999
0.999999
0.999999
0.999999
0.999999
0.999999
0.999999
0.999999
0.999999
0.999999
0.999999
0.999999
0.999999
0.999999
0.999999
0.999999
0.999999
0.999999
0.999999
0.999999
0.999999
0.999999
0.999999
0.999999
0.999999
0.999999
0.999999
0.999999
0.999999
0.999999
0.999999
0.999999
0.999999
0.999999
0.999999
0.999999
0.999999
0.999999
0.999999
0.999999
0.999999
0.999999
0.999999
0.999999
)
;

boundaryField
{
    inlet
    {
        type            zeroGradient;
    }
    outlet
    {
        type            zeroGradient;
    }
    yzfaces
    {
        type            empty;
    }
}

Saturation b:  Min(Sb) = 0.999642 Max(Sb) = 0.999999
DILUPBiCGStab:  Solving for yCO2, Initial residual = 0.000921153, Final residual = 0, No Iterations 1
yH2O:  Min(yH2O) = 0.00279717 Max(yH2O) = 1
DILUPBiCGStab:  Solving for xCO2, Initial residual = 0, Final residual = 0, No Iterations 0
xCO2:  Min(xCO2) = 0 Max(xCO2) = 0
DICPCG:  Solving for p, Initial residual = 5.58564e-06, Final residual = 2.09509e-22, No Iterations 1
Sb_error is = 1.11022e-16
Sb evaporation:  Min(Sb) = 0.999642 Max(Sb) = 0.999999
ExecutionTime = 0.046875 s  ClockTime = 0 s

Coats CFL Number mean: 4.50649e-15 max: 4.50649e-13
deltaT = 0.000207292
Time = 0.000644009

diagonal:  Solving for Sb, Initial residual = 0, Final residual = 0, No Iterations 0
Saturation b: dimensions      [0 0 0 0 0 0 0];

internalField   nonuniform List<scalar> 
100
(
0.999473
0.999999
0.999999
0.999999
0.999999
0.999999
0.999999
0.999999
0.999999
0.999999
0.999999
0.999999
0.999999
0.999999
0.999999
0.999999
0.999999
0.999999
0.999999
0.999999
0.999999
0.999999
0.999999
0.999999
0.999999
0.999999
0.999999
0.999999
0.999999
0.999999
0.999999
0.999999
0.999999
0.999999
0.999999
0.999999
0.999999
0.999999
0.999999
0.999999
0.999999
0.999999
0.999999
0.999999
0.999999
0.999999
0.999999
0.999999
0.999999
0.999999
0.999999
0.999999
0.999999
0.999999
0.999999
0.999999
0.999999
0.999999
0.999999
0.999999
0.999999
0.999999
0.999999
0.999999
0.999999
0.999999
0.999999
0.999999
0.999999
0.999999
0.999999
0.999999
0.999999
0.999999
0.999999
0.999999
0.999999
0.999999
0.999999
0.999999
0.999999
0.999999
0.999999
0.999999
0.999999
0.999999
0.999999
0.999999
0.999999
0.999999
0.999999
0.999999
0.999999
0.999999
0.999999
0.999999
0.999999
0.999999
0.999999
0.999999
)
;

boundaryField
{
    inlet
    {
        type            zeroGradient;
    }
    outlet
    {
        type            zeroGradient;
    }
    yzfaces
    {
        type            empty;
    }
}

Saturation b:  Min(Sb) = 0.999473 Max(Sb) = 0.999999
DILUPBiCGStab:  Solving for yCO2, Initial residual = 0.000454062, Final residual = 0, No Iterations 1
yH2O:  Min(yH2O) = 0.00189854 Max(yH2O) = 1
DILUPBiCGStab:  Solving for xCO2, Initial residual = 0, Final residual = 0, No Iterations 0
xCO2:  Min(xCO2) = 0 Max(xCO2) = 0
DICPCG:  Solving for p, Initial residual = 6.70296e-06, Final residual = 7.69993e-22, No Iterations 1
Sb_error is = 2.22045e-16
Sb evaporation:  Min(Sb) = 0.999473 Max(Sb) = 0.999999
ExecutionTime = 0.046875 s  ClockTime = 0 s

Coats CFL Number mean: 1.73553e-14 max: 1.73553e-12
deltaT = 0.00024872
Time = 0.000892729

diagonal:  Solving for Sb, Initial residual = 0, Final residual = 0, No Iterations 0
Saturation b: dimensions      [0 0 0 0 0 0 0];

internalField   nonuniform List<scalar> 
100
(
0.99927
0.999999
0.999999
0.999999
0.999999
0.999999
0.999999
0.999999
0.999999
0.999999
0.999999
0.999999
0.999999
0.999999
0.999999
0.999999
0.999999
0.999999
0.999999
0.999999
0.999999
0.999999
0.999999
0.999999
0.999999
0.999999
0.999999
0.999999
0.999999
0.999999
0.999999
0.999999
0.999999
0.999999
0.999999
0.999999
0.999999
0.999999
0.999999
0.999999
0.999999
0.999999
0.999999
0.999999
0.999999
0.999999
0.999999
0.999999
0.999999
0.999999
0.999999
0.999999
0.999999
0.999999
0.999999
0.999999
0.999999
0.999999
0.999999
0.999999
0.999999
0.999999
0.999999
0.999999
0.999999
0.999999
0.999999
0.999999
0.999999
0.999999
0.999999
0.999999
0.999999
0.999999
0.999999
0.999999
0.999999
0.999999
0.999999
0.999999
0.999999
0.999999
0.999999
0.999999
0.999999
0.999999
0.999999
0.999999
0.999999
0.999999
0.999999
0.999999
0.999999
0.999999
0.999999
0.999999
0.999999
0.999999
0.999999
0.999999
)
;

boundaryField
{
    inlet
    {
        type            zeroGradient;
    }
    outlet
    {
        type            zeroGradient;
    }
    yzfaces
    {
        type            empty;
    }
}

Saturation b:  Min(Sb) = 0.99927 Max(Sb) = 0.999999
DILUPBiCGStab:  Solving for yCO2, Initial residual = 0.000266848, Final residual = 0, No Iterations 1
yH2O:  Min(yH2O) = 0.00137032 Max(yH2O) = 1
DILUPBiCGStab:  Solving for xCO2, Initial residual = 0, Final residual = 0, No Iterations 0
xCO2:  Min(xCO2) = 0 Max(xCO2) = 0
DICPCG:  Solving for p, Initial residual = 8.04351e-06, Final residual = 8.18327e-22, No Iterations 1
Sb_error is = 0
Sb evaporation:  Min(Sb) = 0.99927 Max(Sb) = 0.999999
ExecutionTime = 0.046875 s  ClockTime = 0 s

Coats CFL Number mean: 5.55244e-14 max: 5.55244e-12
deltaT = 0.000298419
Time = 0.00119115

diagonal:  Solving for Sb, Initial residual = 0, Final residual = 0, No Iterations 0
Saturation b: dimensions      [0 0 0 0 0 0 0];

internalField   nonuniform List<scalar> 
100
(
0.999027
0.999999
0.999999
0.999999
0.999999
0.999999
0.999999
0.999999
0.999999
0.999999
0.999999
0.999999
0.999999
0.999999
0.999999
0.999999
0.999999
0.999999
0.999999
0.999999
0.999999
0.999999
0.999999
0.999999
0.999999
0.999999
0.999999
0.999999
0.999999
0.999999
0.999999
0.999999
0.999999
0.999999
0.999999
0.999999
0.999999
0.999999
0.999999
0.999999
0.999999
0.999999
0.999999
0.999999
0.999999
0.999999
0.999999
0.999999
0.999999
0.999999
0.999999
0.999999
0.999999
0.999999
0.999999
0.999999
0.999999
0.999999
0.999999
0.999999
0.999999
0.999999
0.999999
0.999999
0.999999
0.999999
0.999999
0.999999
0.999999
0.999999
0.999999
0.999999
0.999999
0.999999
0.999999
0.999999
0.999999
0.999999
0.999999
0.999999
0.999999
0.999999
0.999999
0.999999
0.999999
0.999999
0.999999
0.999999
0.999999
0.999999
0.999999
0.999999
0.999999
0.999999
0.999999
0.999999
0.999999
0.999999
0.999999
0.999999
)
;

boundaryField
{
    inlet
    {
        type            zeroGradient;
    }
    outlet
    {
        type            zeroGradient;
    }
    yzfaces
    {
        type            empty;
    }
}

Saturation b:  Min(Sb) = 0.999027 Max(Sb) = 0.999999
DILUPBiCGStab:  Solving for yCO2, Initial residual = 0.000173239, Final residual = 4.86961e-29, No Iterations 1
yH2O:  Min(yH2O) = 0.00102736 Max(yH2O) = 1
DILUPBiCGStab:  Solving for xCO2, Initial residual = 0, Final residual = 0, No Iterations 0
xCO2:  Min(xCO2) = 0 Max(xCO2) = 0
DICPCG:  Solving for p, Initial residual = 9.65213e-06, Final residual = 1.39889e-21, No Iterations 1
Sb_error is = 2.22045e-16
Sb evaporation:  Min(Sb) = 0.999027 Max(Sb) = 0.999999
ExecutionTime = 0.046875 s  ClockTime = 0 s

Coats CFL Number mean: 1.58441e-13 max: 1.58441e-11
deltaT = 0.000357996
Time = 0.00154914

diagonal:  Solving for Sb, Initial residual = 0, Final residual = 0, No Iterations 0
Saturation b: dimensions      [0 0 0 0 0 0 0];

internalField   nonuniform List<scalar> 
100
(
0.998734
0.999999
0.999999
0.999999
0.999999
0.999999
0.999999
0.999999
0.999999
0.999999
0.999999
0.999999
0.999999
0.999999
0.999999
0.999999
0.999999
0.999999
0.999999
0.999999
0.999999
0.999999
0.999999
0.999999
0.999999
0.999999
0.999999
0.999999
0.999999
0.999999
0.999999
0.999999
0.999999
0.999999
0.999999
0.999999
0.999999
0.999999
0.999999
0.999999
0.999999
0.999999
0.999999
0.999999
0.999999
0.999999
0.999999
0.999999
0.999999
0.999999
0.999999
0.999999
0.999999
0.999999
0.999999
0.999999
0.999999
0.999999
0.999999
0.999999
0.999999
0.999999
0.999999
0.999999
0.999999
0.999999
0.999999
0.999999
0.999999
0.999999
0.999999
0.999999
0.999999
0.999999
0.999999
0.999999
0.999999
0.999999
0.999999
0.999999
0.999999
0.999999
0.999999
0.999999
0.999999
0.999999
0.999999
0.999999
0.999999
0.999999
0.999999
0.999999
0.999999
0.999999
0.999999
0.999999
0.999999
0.999999
0.999999
0.999999
)
;

boundaryField
{
    inlet
    {
        type            zeroGradient;
    }
    outlet
    {
        type            zeroGradient;
    }
    yzfaces
    {
        type            empty;
    }
}

Saturation b:  Min(Sb) = 0.998734 Max(Sb) = 0.999999
DILUPBiCGStab:  Solving for yCO2, Initial residual = 0.000119827, Final residual = 0, No Iterations 1
yH2O:  Min(yH2O) = 0.000790135 Max(yH2O) = 1
DILUPBiCGStab:  Solving for xCO2, Initial residual = 0, Final residual = 0, No Iterations 0
xCO2:  Min(xCO2) = 0 Max(xCO2) = 0
DICPCG:  Solving for p, Initial residual = 1.15811e-05, Final residual = 1.42892e-21, No Iterations 1
Sb_error is = 1.11022e-16
Sb evaporation:  Min(Sb) = 0.998734 Max(Sb) = 0.999999
ExecutionTime = 0.046875 s  ClockTime = 0 s

Coats CFL Number mean: 4.18729e-13 max: 4.18729e-11
deltaT = 0.000429441
Time = 0.00197859

diagonal:  Solving for Sb, Initial residual = 0, Final residual = 0, No Iterations 0
Saturation b: dimensions      [0 0 0 0 0 0 0];

internalField   nonuniform List<scalar> 
100
(
0.998384
0.999999
0.999999
0.999999
0.999999
0.999999
0.999999
0.999999
0.999999
0.999999
0.999999
0.999999
0.999999
0.999999
0.999999
0.999999
0.999999
0.999999
0.999999
0.999999
0.999999
0.999999
0.999999
0.999999
0.999999
0.999999
0.999999
0.999999
0.999999
0.999999
0.999999
0.999999
0.999999
0.999999
0.999999
0.999999
0.999999
0.999999
0.999999
0.999999
0.999999
0.999999
0.999999
0.999999
0.999999
0.999999
0.999999
0.999999
0.999999
0.999999
0.999999
0.999999
0.999999
0.999999
0.999999
0.999999
0.999999
0.999999
0.999999
0.999999
0.999999
0.999999
0.999999
0.999999
0.999999
0.999999
0.999999
0.999999
0.999999
0.999999
0.999999
0.999999
0.999999
0.999999
0.999999
0.999999
0.999999
0.999999
0.999999
0.999999
0.999999
0.999999
0.999999
0.999999
0.999999
0.999999
0.999999
0.999999
0.999999
0.999999
0.999999
0.999999
0.999999
0.999999
0.999999
0.999999
0.999999
0.999999
0.999999
0.999999
)
;

boundaryField
{
    inlet
    {
        type            zeroGradient;
    }
    outlet
    {
        type            zeroGradient;
    }
    yzfaces
    {
        type            empty;
    }
}

Saturation b:  Min(Sb) = 0.998384 Max(Sb) = 0.999999
DILUPBiCGStab:  Solving for yCO2, Initial residual = 8.65671e-05, Final residual = 3.37608e-28, No Iterations 1
yH2O:  Min(yH2O) = 0.000618746 Max(yH2O) = 1
DILUPBiCGStab:  Solving for xCO2, Initial residual = 0, Final residual = 0, No Iterations 0
xCO2:  Min(xCO2) = 0 Max(xCO2) = 0
DICPCG:  Solving for p, Initial residual = 1.38951e-05, Final residual = 1.50302e-21, No Iterations 1
Sb_error is = 2.22045e-16
Sb evaporation:  Min(Sb) = 0.998384 Max(Sb) = 0.999999
ExecutionTime = 0.046875 s  ClockTime = 0 s

Coats CFL Number mean: 1.04836e-12 max: 1.04836e-10
deltaT = 0.000515241
Time = 0.00249383

diagonal:  Solving for Sb, Initial residual = 0, Final residual = 0, No Iterations 0
Saturation b: dimensions      [0 0 0 0 0 0 0];

internalField   nonuniform List<scalar> 
100
(
0.997963
0.999999
0.999999
0.999999
0.999999
0.999999
0.999999
0.999999
0.999999
0.999999
0.999999
0.999999
0.999999
0.999999
0.999999
0.999999
0.999999
0.999999
0.999999
0.999999
0.999999
0.999999
0.999999
0.999999
0.999999
0.999999
0.999999
0.999999
0.999999
0.999999
0.999999
0.999999
0.999999
0.999999
0.999999
0.999999
0.999999
0.999999
0.999999
0.999999
0.999999
0.999999
0.999999
0.999999
0.999999
0.999999
0.999999
0.999999
0.999999
0.999999
0.999999
0.999999
0.999999
0.999999
0.999999
0.999999
0.999999
0.999999
0.999999
0.999999
0.999999
0.999999
0.999999
0.999999
0.999999
0.999999
0.999999
0.999999
0.999999
0.999999
0.999999
0.999999
0.999999
0.999999
0.999999
0.999999
0.999999
0.999999
0.999999
0.999999
0.999999
0.999999
0.999999
0.999999
0.999999
0.999999
0.999999
0.999999
0.999999
0.999999
0.999999
0.999999
0.999999
0.999999
0.999999
0.999999
0.999999
0.999999
0.999999
0.999999
)
;

boundaryField
{
    inlet
    {
        type            zeroGradient;
    }
    outlet
    {
        type            zeroGradient;
    }
    yzfaces
    {
        type            empty;
    }
}

Saturation b:  Min(Sb) = 0.997963 Max(Sb) = 0.999999
DILUPBiCGStab:  Solving for yCO2, Initial residual = 6.45365e-05, Final residual = 1.28562e-27, No Iterations 1
yH2O:  Min(yH2O) = 0.000490972 Max(yH2O) = 1
DILUPBiCGStab:  Solving for xCO2, Initial residual = 0, Final residual = 0, No Iterations 0
xCO2:  Min(xCO2) = 0 Max(xCO2) = 0
DICPCG:  Solving for p, Initial residual = 1.66754e-05, Final residual = 2.71059e-21, No Iterations 1
Sb_error is = 1.11022e-16
Sb evaporation:  Min(Sb) = 0.997963 Max(Sb) = 0.999999
ExecutionTime = 0.046875 s  ClockTime = 0 s

Coats CFL Number mean: 2.52386e-12 max: 2.52386e-10
deltaT = 0.000618034
Time = 0.00311186

diagonal:  Solving for Sb, Initial residual = 0, Final residual = 0, No Iterations 0
Saturation b: dimensions      [0 0 0 0 0 0 0];

internalField   nonuniform List<scalar> 
100
(
0.997459
0.999999
0.999999
0.999999
0.999999
0.999999
0.999999
0.999999
0.999999
0.999999
0.999999
0.999999
0.999999
0.999999
0.999999
0.999999
0.999999
0.999999
0.999999
0.999999
0.999999
0.999999
0.999999
0.999999
0.999999
0.999999
0.999999
0.999999
0.999999
0.999999
0.999999
0.999999
0.999999
0.999999
0.999999
0.999999
0.999999
0.999999
0.999999
0.999999
0.999999
0.999999
0.999999
0.999999
0.999999
0.999999
0.999999
0.999999
0.999999
0.999999
0.999999
0.999999
0.999999
0.999999
0.999999
0.999999
0.999999
0.999999
0.999999
0.999999
0.999999
0.999999
0.999999
0.999999
0.999999
0.999999
0.999999
0.999999
0.999999
0.999999
0.999999
0.999999
0.999999
0.999999
0.999999
0.999999
0.999999
0.999999
0.999999
0.999999
0.999999
0.999999
0.999999
0.999999
0.999999
0.999999
0.999999
0.999999
0.999999
0.999999
0.999999
0.999999
0.999999
0.999999
0.999999
0.999999
0.999999
0.999999
0.999999
0.999999
)
;

boundaryField
{
    inlet
    {
        type            zeroGradient;
    }
    outlet
    {
        type            zeroGradient;
    }
    yzfaces
    {
        type            empty;
    }
}

Saturation b:  Min(Sb) = 0.997459 Max(Sb) = 0.999999
DILUPBiCGStab:  Solving for yCO2, Initial residual = 4.92305e-05, Final residual = 0, No Iterations 1
yH2O:  Min(yH2O) = 0.000393501 Max(yH2O) = 1
DILUPBiCGStab:  Solving for xCO2, Initial residual = 0, Final residual = 0, No Iterations 0
xCO2:  Min(xCO2) = 0 Max(xCO2) = 0
DICPCG:  Solving for p, Initial residual = 2.00081e-05, Final residual = 6.27168e-22, No Iterations 1
Sb_error is = 1.11022e-16
Sb evaporation:  Min(Sb) = 0.997459 Max(Sb) = 0.999999
ExecutionTime = 0.046875 s  ClockTime = 0 s

Coats CFL Number mean: 5.89694e-12 max: 5.89694e-10
deltaT = 0.000741181
Time = 0.00385304

diagonal:  Solving for Sb, Initial residual = 0, Final residual = 0, No Iterations 0
Saturation b: dimensions      [0 0 0 0 0 0 0];

internalField   nonuniform List<scalar> 
100
(
0.996854
0.999999
0.999999
0.999999
0.999999
0.999999
0.999999
0.999999
0.999999
0.999999
0.999999
0.999999
0.999999
0.999999
0.999999
0.999999
0.999999
0.999999
0.999999
0.999999
0.999999
0.999999
0.999999
0.999999
0.999999
0.999999
0.999999
0.999999
0.999999
0.999999
0.999999
0.999999
0.999999
0.999999
0.999999
0.999999
0.999999
0.999999
0.999999
0.999999
0.999999
0.999999
0.999999
0.999999
0.999999
0.999999
0.999999
0.999999
0.999999
0.999999
0.999999
0.999999
0.999999
0.999999
0.999999
0.999999
0.999999
0.999999
0.999999
0.999999
0.999999
0.999999
0.999999
0.999999
0.999999
0.999999
0.999999
0.999999
0.999999
0.999999
0.999999
0.999999
0.999999
0.999999
0.999999
0.999999
0.999999
0.999999
0.999999
0.999999
0.999999
0.999999
0.999999
0.999999
0.999999
0.999999
0.999999
0.999999
0.999999
0.999999
0.999999
0.999999
0.999999
0.999999
0.999999
0.999999
0.999999
0.999999
0.999999
0.999999
)
;

boundaryField
{
    inlet
    {
        type            zeroGradient;
    }
    outlet
    {
        type            zeroGradient;
    }
    yzfaces
    {
        type            empty;
    }
}

Saturation b:  Min(Sb) = 0.996854 Max(Sb) = 0.999999
DILUPBiCGStab:  Solving for yCO2, Initial residual = 3.8219e-05, Final residual = 0, No Iterations 1
yH2O:  Min(yH2O) = 0.00031783 Max(yH2O) = 1
DILUPBiCGStab:  Solving for xCO2, Initial residual = 0, Final residual = 0, No Iterations 0
xCO2:  Min(xCO2) = 0 Max(xCO2) = 0
DICPCG:  Solving for p, Initial residual = 2.40033e-05, Final residual = 2.7865e-21, No Iterations 1
Sb_error is = 1.11022e-16
Sb evaporation:  Min(Sb) = 0.996854 Max(Sb) = 0.999999
ExecutionTime = 0.046875 s  ClockTime = 0 s

Coats CFL Number mean: 1.3465e-11 max: 1.3465e-09
deltaT = 0.000889417
Time = 0.00474246

diagonal:  Solving for Sb, Initial residual = 0, Final residual = 0, No Iterations 0
Saturation b: dimensions      [0 0 0 0 0 0 0];

internalField   nonuniform List<scalar> 
100
(
0.996128
0.999999
0.999999
0.999999
0.999999
0.999999
0.999999
0.999999
0.999999
0.999999
0.999999
0.999999
0.999999
0.999999
0.999999
0.999999
0.999999
0.999999
0.999999
0.999999
0.999999
0.999999
0.999999
0.999999
0.999999
0.999999
0.999999
0.999999
0.999999
0.999999
0.999999
0.999999
0.999999
0.999999
0.999999
0.999999
0.999999
0.999999
0.999999
0.999999
0.999999
0.999999
0.999999
0.999999
0.999999
0.999999
0.999999
0.999999
0.999999
0.999999
0.999999
0.999999
0.999999
0.999999
0.999999
0.999999
0.999999
0.999999
0.999999
0.999999
0.999999
0.999999
0.999999
0.999999
0.999999
0.999999
0.999999
0.999999
0.999999
0.999999
0.999999
0.999999
0.999999
0.999999
0.999999
0.999999
0.999999
0.999999
0.999999
0.999999
0.999999
0.999999
0.999999
0.999999
0.999999
0.999999
0.999999
0.999999
0.999999
0.999999
0.999999
0.999999
0.999999
0.999999
0.999999
0.999999
0.999999
0.999999
0.999999
0.999999
)
;

boundaryField
{
    inlet
    {
        type            zeroGradient;
    }
    outlet
    {
        type            zeroGradient;
    }
    yzfaces
    {
        type            empty;
    }
}

Saturation b:  Min(Sb) = 0.996128 Max(Sb) = 0.999999
DILUPBiCGStab:  Solving for yCO2, Initial residual = 3.00978e-05, Final residual = 2.80136e-26, No Iterations 1
yH2O:  Min(yH2O) = 0.000258238 Max(yH2O) = 1
DILUPBiCGStab:  Solving for xCO2, Initial residual = 0, Final residual = 0, No Iterations 0
xCO2:  Min(xCO2) = 0 Max(xCO2) = 0
DICPCG:  Solving for p, Initial residual = 2.88161e-05, Final residual = 7.00706e-21, No Iterations 1
Sb_error is = 1.11022e-16
Sb evaporation:  Min(Sb) = 0.996128 Max(Sb) = 0.999999
ExecutionTime = 0.046875 s  ClockTime = 0 s

Coats CFL Number mean: 3.02392e-11 max: 3.02392e-09
deltaT = 0.00106673
Time = 0.00580919

diagonal:  Solving for Sb, Initial residual = 0, Final residual = 0, No Iterations 0
Saturation b: dimensions      [0 0 0 0 0 0 0];

internalField   nonuniform List<scalar> 
100
(
0.995257
0.999999
0.999999
0.999999
0.999999
0.999999
0.999999
0.999999
0.999999
0.999999
0.999999
0.999999
0.999999
0.999999
0.999999
0.999999
0.999999
0.999999
0.999999
0.999999
0.999999
0.999999
0.999999
0.999999
0.999999
0.999999
0.999999
0.999999
0.999999
0.999999
0.999999
0.999999
0.999999
0.999999
0.999999
0.999999
0.999999
0.999999
0.999999
0.999999
0.999999
0.999999
0.999999
0.999999
0.999999
0.999999
0.999999
0.999999
0.999999
0.999999
0.999999
0.999999
0.999999
0.999999
0.999999
0.999999
0.999999
0.999999
0.999999
0.999999
0.999999
0.999999
0.999999
0.999999
0.999999
0.999999
0.999999
0.999999
0.999999
0.999999
0.999999
0.999999
0.999999
0.999999
0.999999
0.999999
0.999999
0.999999
0.999999
0.999999
0.999999
0.999999
0.999999
0.999999
0.999999
0.999999
0.999999
0.999999
0.999999
0.999999
0.999999
0.999999
0.999999
0.999999
0.999999
0.999999
0.999999
0.999999
0.999999
0.999999
)
;

boundaryField
{
    inlet
    {
        type            zeroGradient;
    }
    outlet
    {
        type            zeroGradient;
    }
    yzfaces
    {
        type            empty;
    }
}

Saturation b:  Min(Sb) = 0.995257 Max(Sb) = 0.999999
DILUPBiCGStab:  Solving for yCO2, Initial residual = 2.39452e-05, Final residual = 0, No Iterations 1
yH2O:  Min(yH2O) = 0.000210828 Max(yH2O) = 1
DILUPBiCGStab:  Solving for xCO2, Initial residual = 0, Final residual = 0, No Iterations 0
xCO2:  Min(xCO2) = 0 Max(xCO2) = 0
DICPCG:  Solving for p, Initial residual = 3.45784e-05, Final residual = 1.20861e-21, No Iterations 1
Sb_error is = 1.11022e-16
Sb evaporation:  Min(Sb) = 0.995257 Max(Sb) = 0.999999
ExecutionTime = 0.046875 s  ClockTime = 0 s

Coats CFL Number mean: 6.69503e-11 max: 6.69503e-09
deltaT = 0.00127952
Time = 0.00708871

diagonal:  Solving for Sb, Initial residual = 0, Final residual = 0, No Iterations 0
Saturation b: dimensions      [0 0 0 0 0 0 0];

internalField   nonuniform List<scalar> 
100
(
0.994212
0.999999
0.999999
0.999999
0.999999
0.999999
0.999999
0.999999
0.999999
0.999999
0.999999
0.999999
0.999999
0.999999
0.999999
0.999999
0.999999
0.999999
0.999999
0.999999
0.999999
0.999999
0.999999
0.999999
0.999999
0.999999
0.999999
0.999999
0.999999
0.999999
0.999999
0.999999
0.999999
0.999999
0.999999
0.999999
0.999999
0.999999
0.999999
0.999999
0.999999
0.999999
0.999999
0.999999
0.999999
0.999999
0.999999
0.999999
0.999999
0.999999
0.999999
0.999999
0.999999
0.999999
0.999999
0.999999
0.999999
0.999999
0.999999
0.999999
0.999999
0.999999
0.999999
0.999999
0.999999
0.999999
0.999999
0.999999
0.999999
0.999999
0.999999
0.999999
0.999999
0.999999
0.999999
0.999999
0.999999
0.999999
0.999999
0.999999
0.999999
0.999999
0.999999
0.999999
0.999999
0.999999
0.999999
0.999999
0.999999
0.999999
0.999999
0.999999
0.999999
0.999999
0.999999
0.999999
0.999999
0.999999
0.999999
0.999999
)
;

boundaryField
{
    inlet
    {
        type            zeroGradient;
    }
    outlet
    {
        type            zeroGradient;
    }
    yzfaces
    {
        type            empty;
    }
}

Saturation b:  Min(Sb) = 0.994212 Max(Sb) = 0.999999
DILUPBiCGStab:  Solving for yCO2, Initial residual = 1.92175e-05, Final residual = 7.19036e-26, No Iterations 1
yH2O:  Min(yH2O) = 0.000172779 Max(yH2O) = 1
DILUPBiCGStab:  Solving for xCO2, Initial residual = 0, Final residual = 0, No Iterations 0
xCO2:  Min(xCO2) = 0 Max(xCO2) = 0
DICPCG:  Solving for p, Initial residual = 4.15015e-05, Final residual = 1.37209e-21, No Iterations 1
Sb_error is = 1.11022e-16
Sb evaporation:  Min(Sb) = 0.994212 Max(Sb) = 0.999999
ExecutionTime = 0.046875 s  ClockTime = 0 s

Coats CFL Number mean: 1.46684e-10 max: 1.46684e-08
deltaT = 0.00153464
Time = 0.00862335

diagonal:  Solving for Sb, Initial residual = 0, Final residual = 0, No Iterations 0
Saturation b: dimensions      [0 0 0 0 0 0 0];

internalField   nonuniform List<scalar> 
100
(
0.99296
0.999999
0.999999
0.999999
0.999999
0.999999
0.999999
0.999999
0.999999
0.999999
0.999999
0.999999
0.999999
0.999999
0.999999
0.999999
0.999999
0.999999
0.999999
0.999999
0.999999
0.999999
0.999999
0.999999
0.999999
0.999999
0.999999
0.999999
0.999999
0.999999
0.999999
0.999999
0.999999
0.999999
0.999999
0.999999
0.999999
0.999999
0.999999
0.999999
0.999999
0.999999
0.999999
0.999999
0.999999
0.999999
0.999999
0.999999
0.999999
0.999999
0.999999
0.999999
0.999999
0.999999
0.999999
0.999999
0.999999
0.999999
0.999999
0.999999
0.999999
0.999999
0.999999
0.999999
0.999999
0.999999
0.999999
0.999999
0.999999
0.999999
0.999999
0.999999
0.999999
0.999999
0.999999
0.999999
0.999999
0.999999
0.999999
0.999999
0.999999
0.999999
0.999999
0.999999
0.999999
0.999999
0.999999
0.999999
0.999999
0.999999
0.999999
0.999999
0.999999
0.999999
0.999999
0.999999
0.999999
0.999999
0.999999
0.999999
)
;

boundaryField
{
    inlet
    {
        type            zeroGradient;
    }
    outlet
    {
        type            zeroGradient;
    }
    yzfaces
    {
        type            empty;
    }
}

Saturation b:  Min(Sb) = 0.99296 Max(Sb) = 0.999999
DILUPBiCGStab:  Solving for yCO2, Initial residual = 1.55293e-05, Final residual = 2.32306e-21, No Iterations 1
yH2O:  Min(yH2O) = 0.000142033 Max(yH2O) = 1
DILUPBiCGStab:  Solving for xCO2, Initial residual = 0, Final residual = 0, No Iterations 0
xCO2:  Min(xCO2) = 0 Max(xCO2) = 0
DICPCG:  Solving for p, Initial residual = 4.98125e-05, Final residual = 9.88436e-21, No Iterations 1
Sb_error is = 1.11022e-16
Sb evaporation:  Min(Sb) = 0.99296 Max(Sb) = 0.999999
ExecutionTime = 0.046875 s  ClockTime = 0 s

Coats CFL Number mean: 3.18717e-10 max: 3.18717e-08
deltaT = 0.00183929
Time = 0.0104626

diagonal:  Solving for Sb, Initial residual = 0, Final residual = 0, No Iterations 0
Saturation b: dimensions      [0 0 0 0 0 0 0];

internalField   nonuniform List<scalar> 
100
(
0.991458
0.999999
0.999999
0.999999
0.999999
0.999999
0.999999
0.999999
0.999999
0.999999
0.999999
0.999999
0.999999
0.999999
0.999999
0.999999
0.999999
0.999999
0.999999
0.999999
0.999999
0.999999
0.999999
0.999999
0.999999
0.999999
0.999999
0.999999
0.999999
0.999999
0.999999
0.999999
0.999999
0.999999
0.999999
0.999999
0.999999
0.999999
0.999999
0.999999
0.999999
0.999999
0.999999
0.999999
0.999999
0.999999
0.999999
0.999999
0.999999
0.999999
0.999999
0.999999
0.999999
0.999999
0.999999
0.999999
0.999999
0.999999
0.999999
0.999999
0.999999
0.999999
0.999999
0.999999
0.999999
0.999999
0.999999
0.999999
0.999999
0.999999
0.999999
0.999999
0.999999
0.999999
0.999999
0.999999
0.999999
0.999999
0.999999
0.999999
0.999999
0.999999
0.999999
0.999999
0.999999
0.999999
0.999999
0.999999
0.999999
0.999999
0.999999
0.999999
0.999999
0.999999
0.999999
0.999999
0.999999
0.999999
0.999999
0.999999
)
;

boundaryField
{
    inlet
    {
        type            zeroGradient;
    }
    outlet
    {
        type            zeroGradient;
    }
    yzfaces
    {
        type            empty;
    }
}

Saturation b:  Min(Sb) = 0.991458 Max(Sb) = 0.999999
DILUPBiCGStab:  Solving for yCO2, Initial residual = 1.26132e-05, Final residual = 2.8013e-25, No Iterations 1
yH2O:  Min(yH2O) = 0.000117064 Max(yH2O) = 1
DILUPBiCGStab:  Solving for xCO2, Initial residual = 0, Final residual = 0, No Iterations 0
xCO2:  Min(xCO2) = 0 Max(xCO2) = 0
DICPCG:  Solving for p, Initial residual = 5.97534e-05, Final residual = 5.75611e-21, No Iterations 1
Sb_error is = 1.11022e-16
Sb evaporation:  Min(Sb) = 0.991458 Max(Sb) = 0.999999
ExecutionTime = 0.0625 s  ClockTime = 0 s

Coats CFL Number mean: 6.87432e-10 max: 6.87432e-08
deltaT = 0.00220387
Time = 0.0126665

diagonal:  Solving for Sb, Initial residual = 0, Final residual = 0, No Iterations 0
Saturation b: dimensions      [0 0 0 0 0 0 0];

internalField   nonuniform List<scalar> 
100
(
0.989659
0.999999
0.999999
0.999999
0.999999
0.999999
0.999999
0.999999
0.999999
0.999999
0.999999
0.999999
0.999999
0.999999
0.999999
0.999999
0.999999
0.999999
0.999999
0.999999
0.999999
0.999999
0.999999
0.999999
0.999999
0.999999
0.999999
0.999999
0.999999
0.999999
0.999999
0.999999
0.999999
0.999999
0.999999
0.999999
0.999999
0.999999
0.999999
0.999999
0.999999
0.999999
0.999999
0.999999
0.999999
0.999999
0.999999
0.999999
0.999999
0.999999
0.999999
0.999999
0.999999
0.999999
0.999999
0.999999
0.999999
0.999999
0.999999
0.999999
0.999999
0.999999
0.999999
0.999999
0.999999
0.999999
0.999999
0.999999
0.999999
0.999999
0.999999
0.999999
0.999999
0.999999
0.999999
0.999999
0.999999
0.999999
0.999999
0.999999
0.999999
0.999999
0.999999
0.999999
0.999999
0.999999
0.999999
0.999999
0.999999
0.999999
0.999999
0.999999
0.999999
0.999999
0.999999
0.999999
0.999999
0.999999
0.999999
0.999999
)
;

boundaryField
{
    inlet
    {
        type            zeroGradient;
    }
    outlet
    {
        type            zeroGradient;
    }
    yzfaces
    {
        type            empty;
    }
}

Saturation b:  Min(Sb) = 0.989659 Max(Sb) = 0.999999
DILUPBiCGStab:  Solving for yCO2, Initial residual = 1.02945e-05, Final residual = 0, No Iterations 1
yH2O:  Min(yH2O) = 9.6689e-05 Max(yH2O) = 1
DILUPBiCGStab:  Solving for xCO2, Initial residual = 0, Final residual = 0, No Iterations 0
xCO2:  Min(xCO2) = 0 Max(xCO2) = 0
DICPCG:  Solving for p, Initial residual = 7.16728e-05, Final residual = 6.48781e-21, No Iterations 1
Sb_error is = 1.11022e-16
Sb evaporation:  Min(Sb) = 0.989659 Max(Sb) = 0.999999
ExecutionTime = 0.0625 s  ClockTime = 0 s

Coats CFL Number mean: 1.47488e-09 max: 1.47488e-07
deltaT = 0.00263993
Time = 0.0153064

diagonal:  Solving for Sb, Initial residual = 0, Final residual = 0, No Iterations 0
Saturation b: dimensions      [0 0 0 0 0 0 0];

internalField   nonuniform List<scalar> 
100
(
0.987504
0.999999
0.999999
0.999999
0.999999
0.999999
0.999999
0.999999
0.999999
0.999999
0.999999
0.999999
0.999999
0.999999
0.999999
0.999999
0.999999
0.999999
0.999999
0.999999
0.999999
0.999999
0.999999
0.999999
0.999999
0.999999
0.999999
0.999999
0.999999
0.999999
0.999999
0.999999
0.999999
0.999999
0.999999
0.999999
0.999999
0.999999
0.999999
0.999999
0.999999
0.999999
0.999999
0.999999
0.999999
0.999999
0.999999
0.999999
0.999999
0.999999
0.999999
0.999999
0.999999
0.999999
0.999999
0.999999
0.999999
0.999999
0.999999
0.999999
0.999999
0.999999
0.999999
0.999999
0.999999
0.999999
0.999999
0.999999
0.999999
0.999999
0.999999
0.999999
0.999999
0.999999
0.999999
0.999999
0.999999
0.999999
0.999999
0.999999
0.999999
0.999999
0.999999
0.999999
0.999999
0.999999
0.999999
0.999999
0.999999
0.999999
0.999999
0.999999
0.999999
0.999999
0.999999
0.999999
0.999999
0.999999
0.999999
0.999999
)
;

boundaryField
{
    inlet
    {
        type            zeroGradient;
    }
    outlet
    {
        type            zeroGradient;
    }
    yzfaces
    {
        type            empty;
    }
}

Saturation b:  Min(Sb) = 0.987504 Max(Sb) = 0.999999
DILUPBiCGStab:  Solving for yCO2, Initial residual = 8.43994e-06, Final residual = 1.12795e-21, No Iterations 1
yH2O:  Min(yH2O) = 7.99962e-05 Max(yH2O) = 1
DILUPBiCGStab:  Solving for xCO2, Initial residual = 0, Final residual = 0, No Iterations 0
xCO2:  Min(xCO2) = 0 Max(xCO2) = 0
DICPCG:  Solving for p, Initial residual = 8.5962e-05, Final residual = 2.92773e-21, No Iterations 1
Sb_error is = 1.11022e-16
Sb evaporation:  Min(Sb) = 0.987504 Max(Sb) = 0.999999
ExecutionTime = 0.0625 s  ClockTime = 0 s

Coats CFL Number mean: 3.15172e-09 max: 3.15172e-07
deltaT = 0.00316622
Time = 0.0184727

diagonal:  Solving for Sb, Initial residual = 0, Final residual = 0, No Iterations 0
Saturation b: dimensions      [0 0 0 0 0 0 0];

internalField   nonuniform List<scalar> 
100
(
0.984919
0.999999
0.999999
0.999999
0.999999
0.999999
0.999999
0.999999
0.999999
0.999999
0.999999
0.999999
0.999999
0.999999
0.999999
0.999999
0.999999
0.999999
0.999999
0.999999
0.999999
0.999999
0.999999
0.999999
0.999999
0.999999
0.999999
0.999999
0.999999
0.999999
0.999999
0.999999
0.999999
0.999999
0.999999
0.999999
0.999999
0.999999
0.999999
0.999999
0.999999
0.999999
0.999999
0.999999
0.999999
0.999999
0.999999
0.999999
0.999999
0.999999
0.999999
0.999999
0.999999
0.999999
0.999999
0.999999
0.999999
0.999999
0.999999
0.999999
0.999999
0.999999
0.999999
0.999999
0.999999
0.999999
0.999999
0.999999
0.999999
0.999999
0.999999
0.999999
0.999999
0.999999
0.999999
0.999999
0.999999
0.999999
0.999999
0.999999
0.999999
0.999999
0.999999
0.999999
0.999999
0.999999
0.999999
0.999999
0.999999
0.999999
0.999999
0.999999
0.999999
0.999999
0.999999
0.999999
0.999999
0.999999
0.999999
0.999999
)
;

boundaryField
{
    inlet
    {
        type            zeroGradient;
    }
    outlet
    {
        type            zeroGradient;
    }
    yzfaces
    {
        type            empty;
    }
}

Saturation b:  Min(Sb) = 0.984919 Max(Sb) = 0.999999
DILUPBiCGStab:  Solving for yCO2, Initial residual = 6.96356e-06, Final residual = 0, No Iterations 1
yH2O:  Min(yH2O) = 6.62472e-05 Max(yH2O) = 1
DILUPBiCGStab:  Solving for xCO2, Initial residual = 0, Final residual = 0, No Iterations 0
xCO2:  Min(xCO2) = 0 Max(xCO2) = 0
DICPCG:  Solving for p, Initial residual = 0.000103253, Final residual = 3.39328e-21, No Iterations 1
Sb_error is = 2.22045e-16
Sb evaporation:  Min(Sb) = 0.984919 Max(Sb) = 0.999999
ExecutionTime = 0.0625 s  ClockTime = 0 s

Coats CFL Number mean: 6.73211e-09 max: 6.73211e-07
deltaT = 0.00378968
Time = 0.0222623

diagonal:  Solving for Sb, Initial residual = 0, Final residual = 0, No Iterations 0
Saturation b: dimensions      [0 0 0 0 0 0 0];

internalField   nonuniform List<scalar> 
100
(
0.981826
0.999999
0.999999
0.999999
0.999999
0.999999
0.999999
0.999999
0.999999
0.999999
0.999999
0.999999
0.999999
0.999999
0.999999
0.999999
0.999999
0.999999
0.999999
0.999999
0.999999
0.999999
0.999999
0.999999
0.999999
0.999999
0.999999
0.999999
0.999999
0.999999
0.999999
0.999999
0.999999
0.999999
0.999999
0.999999
0.999999
0.999999
0.999999
0.999999
0.999999
0.999999
0.999999
0.999999
0.999999
0.999999
0.999999
0.999999
0.999999
0.999999
0.999999
0.999999
0.999999
0.999999
0.999999
0.999999
0.999999
0.999999
0.999999
0.999999
0.999999
0.999999
0.999999
0.999999
0.999999
0.999999
0.999999
0.999999
0.999999
0.999999
0.999999
0.999999
0.999999
0.999999
0.999999
0.999999
0.999999
0.999999
0.999999
0.999999
0.999999
0.999999
0.999999
0.999999
0.999999
0.999999
0.999999
0.999999
0.999999
0.999999
0.999999
0.999999
0.999999
0.999999
0.999999
0.999999
0.999999
0.999999
0.999999
0.999999
)
;

boundaryField
{
    inlet
    {
        type            zeroGradient;
    }
    outlet
    {
        type            zeroGradient;
    }
    yzfaces
    {
        type            empty;
    }
}

Saturation b:  Min(Sb) = 0.981826 Max(Sb) = 0.999999
DILUPBiCGStab:  Solving for yCO2, Initial residual = 5.77834e-06, Final residual = 0, No Iterations 1
yH2O:  Min(yH2O) = 5.48886e-05 Max(yH2O) = 1
DILUPBiCGStab:  Solving for xCO2, Initial residual = 0, Final residual = 0, No Iterations 0
xCO2:  Min(xCO2) = 0 Max(xCO2) = 0
DICPCG:  Solving for p, Initial residual = 0.000123807, Final residual = 1.20346e-20, No Iterations 1
Sb_error is = 0
Sb evaporation:  Min(Sb) = 0.981826 Max(Sb) = 0.999999
ExecutionTime = 0.0625 s  ClockTime = 0 s

Coats CFL Number mean: 1.43274e-08 max: 1.43274e-06
deltaT = 0.00454762
Time = 0.02681

diagonal:  Solving for Sb, Initial residual = 0, Final residual = 0, No Iterations 0
Saturation b: dimensions      [0 0 0 0 0 0 0];

internalField   nonuniform List<scalar> 
100
(
0.978113
0.999999
0.999999
0.999999
0.999999
0.999999
0.999999
0.999999
0.999999
0.999999
0.999999
0.999999
0.999999
0.999999
0.999999
0.999999
0.999999
0.999999
0.999999
0.999999
0.999999
0.999999
0.999999
0.999999
0.999999
0.999999
0.999999
0.999999
0.999999
0.999999
0.999999
0.999999
0.999999
0.999999
0.999999
0.999999
0.999999
0.999999
0.999999
0.999999
0.999999
0.999999
0.999999
0.999999
0.999999
0.999999
0.999999
0.999999
0.999999
0.999999
0.999999
0.999999
0.999999
0.999999
0.999999
0.999999
0.999999
0.999999
0.999999
0.999999
0.999999
0.999999
0.999999
0.999999
0.999999
0.999999
0.999999
0.999999
0.999999
0.999999
0.999999
0.999999
0.999999
0.999999
0.999999
0.999999
0.999999
0.999999
0.999999
0.999999
0.999999
0.999999
0.999999
0.999999
0.999999
0.999999
0.999999
0.999999
0.999999
0.999999
0.999999
0.999999
0.999999
0.999999
0.999999
0.999999
0.999999
0.999999
0.999999
0.999999
)
;

boundaryField
{
    inlet
    {
        type            zeroGradient;
    }
    outlet
    {
        type            zeroGradient;
    }
    yzfaces
    {
        type            empty;
    }
}

Saturation b:  Min(Sb) = 0.978113 Max(Sb) = 0.999999
DILUPBiCGStab:  Solving for yCO2, Initial residual = 4.87868e-06, Final residual = 0, No Iterations 1
yH2O:  Min(yH2O) = 4.54045e-05 Max(yH2O) = 1
DILUPBiCGStab:  Solving for xCO2, Initial residual = 0, Final residual = 0, No Iterations 0
xCO2:  Min(xCO2) = 0 Max(xCO2) = 0
DICPCG:  Solving for p, Initial residual = 0.000148882, Final residual = 4.24256e-21, No Iterations 1
Sb_error is = 1.11022e-16
Sb evaporation:  Min(Sb) = 0.978113 Max(Sb) = 0.999999
ExecutionTime = 0.0625 s  ClockTime = 0 s

Coats CFL Number mean: 3.06018e-08 max: 3.06018e-06
deltaT = 0.00543682
Time = 0.0322468

diagonal:  Solving for Sb, Initial residual = 0, Final residual = 0, No Iterations 0
Saturation b: dimensions      [0 0 0 0 0 0 0];

internalField   nonuniform List<scalar> 
100
(
0.973675
0.999999
0.999999
0.999999
0.999999
0.999999
0.999999
0.999999
0.999999
0.999999
0.999999
0.999999
0.999999
0.999999
0.999999
0.999999
0.999999
0.999999
0.999999
0.999999
0.999999
0.999999
0.999999
0.999999
0.999999
0.999999
0.999999
0.999999
0.999999
0.999999
0.999999
0.999999
0.999999
0.999999
0.999999
0.999999
0.999999
0.999999
0.999999
0.999999
0.999999
0.999999
0.999999
0.999999
0.999999
0.999999
0.999999
0.999999
0.999999
0.999999
0.999999
0.999999
0.999999
0.999999
0.999999
0.999999
0.999999
0.999999
0.999999
0.999999
0.999999
0.999999
0.999999
0.999999
0.999999
0.999999
0.999999
0.999999
0.999999
0.999999
0.999999
0.999999
0.999999
0.999999
0.999999
0.999999
0.999999
0.999999
0.999999
0.999999
0.999999
0.999999
0.999999
0.999999
0.999999
0.999999
0.999999
0.999999
0.999999
0.999999
0.999999
0.999999
0.999999
0.999999
0.999999
0.999999
0.999999
0.999999
0.999999
0.999999
)
;

boundaryField
{
    inlet
    {
        type            zeroGradient;
    }
    outlet
    {
        type            zeroGradient;
    }
    yzfaces
    {
        type            empty;
    }
}

Saturation b:  Min(Sb) = 0.973675 Max(Sb) = 0.999999
DILUPBiCGStab:  Solving for yCO2, Initial residual = 4.23966e-06, Final residual = 3.43937e-23, No Iterations 1
yH2O:  Min(yH2O) = 3.73836e-05 Max(yH2O) = 1
DILUPBiCGStab:  Solving for xCO2, Initial residual = 0, Final residual = 0, No Iterations 0
xCO2:  Min(xCO2) = 0 Max(xCO2) = 0
DICPCG:  Solving for p, Initial residual = 0.000178443, Final residual = 2.14299e-20, No Iterations 1
Sb_error is = 1.11022e-16
Sb evaporation:  Min(Sb) = 0.973675 Max(Sb) = 0.999999
ExecutionTime = 0.0625 s  ClockTime = 0 s

Coats CFL Number mean: 6.5125e-08 max: 6.5125e-06
deltaT = 0.00649499
Time = 0.0387418

diagonal:  Solving for Sb, Initial residual = 0, Final residual = 0, No Iterations 0
Saturation b: dimensions      [0 0 0 0 0 0 0];

internalField   nonuniform List<scalar> 
100
(
0.968373
0.999999
0.999999
0.999999
0.999999
0.999999
0.999999
0.999999
0.999999
0.999999
0.999999
0.999999
0.999999
0.999999
0.999999
0.999999
0.999999
0.999999
0.999999
0.999999
0.999999
0.999999
0.999999
0.999999
0.999999
0.999999
0.999999
0.999999
0.999999
0.999999
0.999999
0.999999
0.999999
0.999999
0.999999
0.999999
0.999999
0.999999
0.999999
0.999999
0.999999
0.999999
0.999999
0.999999
0.999999
0.999999
0.999999
0.999999
0.999999
0.999999
0.999999
0.999999
0.999999
0.999999
0.999999
0.999999
0.999999
0.999999
0.999999
0.999999
0.999999
0.999999
0.999999
0.999999
0.999999
0.999999
0.999999
0.999999
0.999999
0.999999
0.999999
0.999999
0.999999
0.999999
0.999999
0.999999
0.999999
0.999999
0.999999
0.999999
0.999999
0.999999
0.999999
0.999999
0.999999
0.999999
0.999999
0.999999
0.999999
0.999999
0.999999
0.999999
0.999999
0.999999
0.999999
0.999999
0.999999
0.999999
0.999999
0.999999
)
;

boundaryField
{
    inlet
    {
        type            zeroGradient;
    }
    outlet
    {
        type            zeroGradient;
    }
    yzfaces
    {
        type            empty;
    }
}

Saturation b:  Min(Sb) = 0.968373 Max(Sb) = 0.999999
DILUPBiCGStab:  Solving for yCO2, Initial residual = 3.94935e-06, Final residual = 0, No Iterations 1
yH2O:  Min(yH2O) = 3.03591e-05 Max(yH2O) = 1
DILUPBiCGStab:  Solving for xCO2, Initial residual = 0, Final residual = 0, No Iterations 0
xCO2:  Min(xCO2) = 0 Max(xCO2) = 0
DICPCG:  Solving for p, Initial residual = 0.000213806, Final residual = 6.88237e-21, No Iterations 1
Sb_error is = 1.11022e-16
Sb evaporation:  Min(Sb) = 0.968373 Max(Sb) = 0.999999
ExecutionTime = 0.0625 s  ClockTime = 0 s

Coats CFL Number mean: 1.38645e-07 max: 1.38645e-05
deltaT = 0.00775208
Time = 0.0464938

diagonal:  Solving for Sb, Initial residual = 0, Final residual = 0, No Iterations 0
Saturation b: dimensions      [0 0 0 0 0 0 0];

internalField   nonuniform List<scalar> 
100
(
0.962045
0.999999
0.999999
0.999999
0.999999
0.999999
0.999999
0.999999
0.999999
0.999999
0.999999
0.999999
0.999999
0.999999
0.999999
0.999999
0.999999
0.999999
0.999999
0.999999
0.999999
0.999999
0.999999
0.999999
0.999999
0.999999
0.999999
0.999999
0.999999
0.999999
0.999999
0.999999
0.999999
0.999999
0.999999
0.999999
0.999999
0.999999
0.999999
0.999999
0.999999
0.999999
0.999999
0.999999
0.999999
0.999999
0.999999
0.999999
0.999999
0.999999
0.999999
0.999999
0.999999
0.999999
0.999999
0.999999
0.999999
0.999999
0.999999
0.999999
0.999999
0.999999
0.999999
0.999999
0.999999
0.999999
0.999999
0.999999
0.999999
0.999999
0.999999
0.999999
0.999999
0.999999
0.999999
0.999999
0.999999
0.999999
0.999999
0.999999
0.999999
0.999999
0.999999
0.999999
0.999999
0.999999
0.999999
0.999999
0.999999
0.999999
0.999999
0.999999
0.999999
0.999999
0.999999
0.999999
0.999999
0.999999
0.999999
0.999999
)
;

boundaryField
{
    inlet
    {
        type            zeroGradient;
    }
    outlet
    {
        type            zeroGradient;
    }
    yzfaces
    {
        type            empty;
    }
}

Saturation b:  Min(Sb) = 0.962045 Max(Sb) = 0.999999
DILUPBiCGStab:  Solving for yCO2, Initial residual = 0.000163048, Final residual = 1.36334e-22, No Iterations 1
yH2O:  Min(yH2O) = 0.00159253 Max(yH2O) = 1
DILUPBiCGStab:  Solving for xCO2, Initial residual = 0.00162365, Final residual = 3.3949e-35, No Iterations 1
xCO2:  Min(xCO2) = 8.81924e-250 Max(xCO2) = 0.0264744
DICPCG:  Solving for p, Initial residual = 0.000256065, Final residual = 4.04172e-20, No Iterations 1
Sb_error is = 2.22045e-16
Sb evaporation:  Min(Sb) = 0.962045 Max(Sb) = 0.999999
ExecutionTime = 0.0625 s  ClockTime = 0 s

Coats CFL Number mean: 2.95532e-07 max: 2.95532e-05
deltaT = 0.00925734
Time = 0.0557512

diagonal:  Solving for Sb, Initial residual = 0, Final residual = 0, No Iterations 0
Saturation b: dimensions      [0 0 0 0 0 0 0];

internalField   nonuniform List<scalar> 
100
(
0.954489
0.999998
0.999999
0.999999
0.999999
0.999999
0.999999
0.999999
0.999999
0.999999
0.999999
0.999999
0.999999
0.999999
0.999999
0.999999
0.999999
0.999999
0.999999
0.999999
0.999999
0.999999
0.999999
0.999999
0.999999
0.999999
0.999999
0.999999
0.999999
0.999999
0.999999
0.999999
0.999999
0.999999
0.999999
0.999999
0.999999
0.999999
0.999999
0.999999
0.999999
0.999999
0.999999
0.999999
0.999999
0.999999
0.999999
0.999999
0.999999
0.999999
0.999999
0.999999
0.999999
0.999999
0.999999
0.999999
0.999999
0.999999
0.999999
0.999999
0.999999
0.999999
0.999999
0.999999
0.999999
0.999999
0.999999
0.999999
0.999999
0.999999
0.999999
0.999999
0.999999
0.999999
0.999999
0.999999
0.999999
0.999999
0.999999
0.999999
0.999999
0.999999
0.999999
0.999999
0.999999
0.999999
0.999999
0.999999
0.999999
0.999999
0.999999
0.999999
0.999999
0.999999
0.999999
0.999999
0.999999
0.999999
0.999999
0.999999
)
;

boundaryField
{
    inlet
    {
        type            zeroGradient;
    }
    outlet
    {
        type            zeroGradient;
    }
    yzfaces
    {
        type            empty;
    }
}

Saturation b:  Min(Sb) = 0.954489 Max(Sb) = 0.999999
DILUPBiCGStab:  Solving for yCO2, Initial residual = 0.000164098, Final residual = 2.71694e-22, No Iterations 1
yH2O:  Min(yH2O) = 0.00159251 Max(yH2O) = 1
DILUPBiCGStab:  Solving for xCO2, Initial residual = 0.00194518, Final residual = 1.38044e-35, No Iterations 1
xCO2:  Min(xCO2) = 2.30945e-241 Max(xCO2) = 0.0264917
DICPCG:  Solving for p, Initial residual = 0.000306976, Final residual = 1.16913e-20, No Iterations 1
Sb_error is = 1.11022e-16
Sb evaporation:  Min(Sb) = 0.954489 Max(Sb) = 0.999999
ExecutionTime = 0.0625 s  ClockTime = 0 s

Coats CFL Number mean: 6.32878e-07 max: 6.32878e-05
deltaT = 0.0111088
Time = 0.06686

diagonal:  Solving for Sb, Initial residual = 0, Final residual = 0, No Iterations 0
Saturation b: dimensions      [0 0 0 0 0 0 0];

internalField   nonuniform List<scalar> 
100
(
0.945422
0.999998
0.999999
0.999999
0.999999
0.999999
0.999999
0.999999
0.999999
0.999999
0.999999
0.999999
0.999999
0.999999
0.999999
0.999999
0.999999
0.999999
0.999999
0.999999
0.999999
0.999999
0.999999
0.999999
0.999999
0.999999
0.999999
0.999999
0.999999
0.999999
0.999999
0.999999
0.999999
0.999999
0.999999
0.999999
0.999999
0.999999
0.999999
0.999999
0.999999
0.999999
0.999999
0.999999
0.999999
0.999999
0.999999
0.999999
0.999999
0.999999
0.999999
0.999999
0.999999
0.999999
0.999999
0.999999
0.999999
0.999999
0.999999
0.999999
0.999999
0.999999
0.999999
0.999999
0.999999
0.999999
0.999999
0.999999
0.999999
0.999999
0.999999
0.999999
0.999999
0.999999
0.999999
0.999999
0.999999
0.999999
0.999999
0.999999
0.999999
0.999999
0.999999
0.999999
0.999999
0.999999
0.999999
0.999999
0.999999
0.999999
0.999999
0.999999
0.999999
0.999999
0.999999
0.999999
0.999999
0.999999
0.999999
0.999999
)
;

boundaryField
{
    inlet
    {
        type            zeroGradient;
    }
    outlet
    {
        type            zeroGradient;
    }
    yzfaces
    {
        type            empty;
    }
}

Saturation b:  Min(Sb) = 0.945422 Max(Sb) = 0.999999
DILUPBiCGStab:  Solving for yCO2, Initial residual = 0.000167249, Final residual = 5.4432e-22, No Iterations 1
yH2O:  Min(yH2O) = 0.00159037 Max(yH2O) = 1
DILUPBiCGStab:  Solving for xCO2, Initial residual = 0.00234319, Final residual = 6.37213e-37, No Iterations 1
xCO2:  Min(xCO2) = 5.13808e-233 Max(xCO2) = 0.026513
DICPCG:  Solving for p, Initial residual = 0.000369911, Final residual = 4.732e-20, No Iterations 1
Sb_error is = 1.11022e-16
Sb evaporation:  Min(Sb) = 0.945422 Max(Sb) = 0.999999
ExecutionTime = 0.0625 s  ClockTime = 0 s

Coats CFL Number mean: 1.37358e-06 max: 0.000137358
deltaT = 0.0133306
Time = 0.0801906

diagonal:  Solving for Sb, Initial residual = 0, Final residual = 0, No Iterations 0
Saturation b: dimensions      [0 0 0 0 0 0 0];

internalField   nonuniform List<scalar> 
100
(
0.934542
0.999996
0.999999
0.999999
0.999999
0.999999
0.999999
0.999999
0.999999
0.999999
0.999999
0.999999
0.999999
0.999999
0.999999
0.999999
0.999999
0.999999
0.999999
0.999999
0.999999
0.999999
0.999999
0.999999
0.999999
0.999999
0.999999
0.999999
0.999999
0.999999
0.999999
0.999999
0.999999
0.999999
0.999999
0.999999
0.999999
0.999999
0.999999
0.999999
0.999999
0.999999
0.999999
0.999999
0.999999
0.999999
0.999999
0.999999
0.999999
0.999999
0.999999
0.999999
0.999999
0.999999
0.999999
0.999999
0.999999
0.999999
0.999999
0.999999
0.999999
0.999999
0.999999
0.999999
0.999999
0.999999
0.999999
0.999999
0.999999
0.999999
0.999999
0.999999
0.999999
0.999999
0.999999
0.999999
0.999999
0.999999
0.999999
0.999999
0.999999
0.999999
0.999999
0.999999
0.999999
0.999999
0.999999
0.999999
0.999999
0.999999
0.999999
0.999999
0.999999
0.999999
0.999999
0.999999
0.999999
0.999999
0.999999
0.999999
)
;

boundaryField
{
    inlet
    {
        type            zeroGradient;
    }
    outlet
    {
        type            zeroGradient;
    }
    yzfaces
    {
        type            empty;
    }
}

Saturation b:  Min(Sb) = 0.934542 Max(Sb) = 0.999999
DILUPBiCGStab:  Solving for yCO2, Initial residual = 0.000171875, Final residual = 1.0911e-21, No Iterations 1
yH2O:  Min(yH2O) = 0.0015879 Max(yH2O) = 1
DILUPBiCGStab:  Solving for xCO2, Initial residual = 0.00282265, Final residual = 3.96085e-35, No Iterations 1
xCO2:  Min(xCO2) = 8.3629e-225 Max(xCO2) = 0.0265389
DICPCG:  Solving for p, Initial residual = 0.000445792, Final residual = 1.13733e-19, No Iterations 1
Sb_error is = 2.22045e-16
Sb evaporation:  Min(Sb) = 0.934542 Max(Sb) = 0.999999
ExecutionTime = 0.0625 s  ClockTime = 0 s

Coats CFL Number mean: 3.01163e-06 max: 0.000301163
deltaT = 0.0158588
Time = 0.0960493

diagonal:  Solving for Sb, Initial residual = 0, Final residual = 0, No Iterations 0
Saturation b: dimensions      [0 0 0 0 0 0 0];

internalField   nonuniform List<scalar> 
100
(
0.921602
0.99999
0.999999
0.999999
0.999999
0.999999
0.999999
0.999999
0.999999
0.999999
0.999999
0.999999
0.999999
0.999999
0.999999
0.999999
0.999999
0.999999
0.999999
0.999999
0.999999
0.999999
0.999999
0.999999
0.999999
0.999999
0.999999
0.999999
0.999999
0.999999
0.999999
0.999999
0.999999
0.999999
0.999999
0.999999
0.999999
0.999999
0.999999
0.999999
0.999999
0.999999
0.999999
0.999999
0.999999
0.999999
0.999999
0.999999
0.999999
0.999999
0.999999
0.999999
0.999999
0.999999
0.999999
0.999999
0.999999
0.999999
0.999999
0.999999
0.999999
0.999999
0.999999
0.999999
0.999999
0.999999
0.999999
0.999999
0.999999
0.999999
0.999999
0.999999
0.999999
0.999999
0.999999
0.999999
0.999999
0.999999
0.999999
0.999999
0.999999
0.999999
0.999999
0.999999
0.999999
0.999999
0.999999
0.999999
0.999999
0.999999
0.999999
0.999999
0.999999
0.999999
0.999999
0.999999
0.999999
0.999999
0.999999
0.999999
)
;

boundaryField
{
    inlet
    {
        type            zeroGradient;
    }
    outlet
    {
        type            zeroGradient;
    }
    yzfaces
    {
        type            empty;
    }
}

Saturation b:  Min(Sb) = 0.921602 Max(Sb) = 0.999999
DILUPBiCGStab:  Solving for yCO2, Initial residual = 0.000176144, Final residual = 2.17178e-21, No Iterations 1
yH2O:  Min(yH2O) = 0.00158767 Max(yH2O) = 1
DILUPBiCGStab:  Solving for xCO2, Initial residual = 0.00336606, Final residual = 9.15758e-37, No Iterations 1
xCO2:  Min(xCO2) = 5.12448e-217 Max(xCO2) = 0.0265687
DICPCG:  Solving for p, Initial residual = 0.00053242, Final residual = 5.4576e-20, No Iterations 1
Sb_error is = 1.11022e-16
Sb evaporation:  Min(Sb) = 0.921602 Max(Sb) = 0.999999
ExecutionTime = 0.0625 s  ClockTime = 0 s

Coats CFL Number mean: 6.59322e-06 max: 0.000659322
deltaT = 0.0188323
Time = 0.114882

diagonal:  Solving for Sb, Initial residual = 0, Final residual = 0, No Iterations 0
Saturation b: dimensions      [0 0 0 0 0 0 0];

internalField   nonuniform List<scalar> 
100
(
0.906243
0.999976
0.999999
0.999999
0.999999
0.999999
0.999999
0.999999
0.999999
0.999999
0.999999
0.999999
0.999999
0.999999
0.999999
0.999999
0.999999
0.999999
0.999999
0.999999
0.999999
0.999999
0.999999
0.999999
0.999999
0.999999
0.999999
0.999999
0.999999
0.999999
0.999999
0.999999
0.999999
0.999999
0.999999
0.999999
0.999999
0.999999
0.999999
0.999999
0.999999
0.999999
0.999999
0.999999
0.999999
0.999999
0.999999
0.999999
0.999999
0.999999
0.999999
0.999999
0.999999
0.999999
0.999999
0.999999
0.999999
0.999999
0.999999
0.999999
0.999999
0.999999
0.999999
0.999999
0.999999
0.999999
0.999999
0.999999
0.999999
0.999999
0.999999
0.999999
0.999999
0.999999
0.999999
0.999999
0.999999
0.999999
0.999999
0.999999
0.999999
0.999999
0.999999
0.999999
0.999999
0.999999
0.999999
0.999999
0.999999
0.999999
0.999999
0.999999
0.999999
0.999999
0.999999
0.999999
0.999999
0.999999
0.999999
0.999999
)
;

boundaryField
{
    inlet
    {
        type            zeroGradient;
    }
    outlet
    {
        type            zeroGradient;
    }
    yzfaces
    {
        type            empty;
    }
}

Saturation b:  Min(Sb) = 0.906243 Max(Sb) = 0.999999
DILUPBiCGStab:  Solving for yCO2, Initial residual = 0.00018053, Final residual = 2.15988e-21, No Iterations 1
yH2O:  Min(yH2O) = 0.00158742 Max(yH2O) = 1
DILUPBiCGStab:  Solving for xCO2, Initial residual = 0.0039977, Final residual = 2.97544e-35, No Iterations 1
xCO2:  Min(xCO2) = 2.24453e-209 Max(xCO2) = 0.0266042
DICPCG:  Solving for p, Initial residual = 0.000633543, Final residual = 2.25208e-20, No Iterations 1
Sb_error is = 1.11022e-16
Sb evaporation:  Min(Sb) = 0.906243 Max(Sb) = 0.999999
ExecutionTime = 0.0625 s  ClockTime = 0 s

Coats CFL Number mean: 1.45333e-05 max: 0.00145333
deltaT = 0.022128
Time = 0.13701

diagonal:  Solving for Sb, Initial residual = 0, Final residual = 0, No Iterations 0
Saturation b: dimensions      [0 0 0 0 0 0 0];

internalField   nonuniform List<scalar> 
100
(
0.888217
0.99994
0.999999
0.999999
0.999999
0.999999
0.999999
0.999999
0.999999
0.999999
0.999999
0.999999
0.999999
0.999999
0.999999
0.999999
0.999999
0.999999
0.999999
0.999999
0.999999
0.999999
0.999999
0.999999
0.999999
0.999999
0.999999
0.999999
0.999999
0.999999
0.999999
0.999999
0.999999
0.999999
0.999999
0.999999
0.999999
0.999999
0.999999
0.999999
0.999999
0.999999
0.999999
0.999999
0.999999
0.999999
0.999999
0.999999
0.999999
0.999999
0.999999
0.999999
0.999999
0.999999
0.999999
0.999999
0.999999
0.999999
0.999999
0.999999
0.999999
0.999999
0.999999
0.999999
0.999999
0.999999
0.999999
0.999999
0.999999
0.999999
0.999999
0.999999
0.999999
0.999999
0.999999
0.999999
0.999999
0.999999
0.999999
0.999999
0.999999
0.999999
0.999999
0.999999
0.999999
0.999999
0.999999
0.999999
0.999999
0.999999
0.999999
0.999999
0.999999
0.999999
0.999999
0.999999
0.999999
0.999999
0.999999
0.999999
)
;

boundaryField
{
    inlet
    {
        type            zeroGradient;
    }
    outlet
    {
        type            zeroGradient;
    }
    yzfaces
    {
        type            empty;
    }
}

Saturation b:  Min(Sb) = 0.888217 Max(Sb) = 0.999999
DILUPBiCGStab:  Solving for yCO2, Initial residual = 0.000183714, Final residual = 0, No Iterations 1
yH2O:  Min(yH2O) = 0.00158928 Max(yH2O) = 1
DILUPBiCGStab:  Solving for xCO2, Initial residual = 0.00469542, Final residual = 1.36904e-38, No Iterations 1
xCO2:  Min(xCO2) = 3.44082e-202 Max(xCO2) = 0.0266442
DICPCG:  Solving for p, Initial residual = 0.000742668, Final residual = 2.86549e-20, No Iterations 1
Sb_error is = 1.11022e-16
Sb evaporation:  Min(Sb) = 0.888217 Max(Sb) = 0.999999
ExecutionTime = 0.0625 s  ClockTime = 0 s

Coats CFL Number mean: 3.18477e-05 max: 0.00318477
deltaT = 0.0261512
Time = 0.163161

diagonal:  Solving for Sb, Initial residual = 0, Final residual = 0, No Iterations 0
Saturation b: dimensions      [0 0 0 0 0 0 0];

internalField   nonuniform List<scalar> 
100
(
0.866964
0.999846
0.999999
0.999999
0.999999
0.999999
0.999999
0.999999
0.999999
0.999999
0.999999
0.999999
0.999999
0.999999
0.999999
0.999999
0.999999
0.999999
0.999999
0.999999
0.999999
0.999999
0.999999
0.999999
0.999999
0.999999
0.999999
0.999999
0.999999
0.999999
0.999999
0.999999
0.999999
0.999999
0.999999
0.999999
0.999999
0.999999
0.999999
0.999999
0.999999
0.999999
0.999999
0.999999
0.999999
0.999999
0.999999
0.999999
0.999999
0.999999
0.999999
0.999999
0.999999
0.999999
0.999999
0.999999
0.999999
0.999999
0.999999
0.999999
0.999999
0.999999
0.999999
0.999999
0.999999
0.999999
0.999999
0.999999
0.999999
0.999999
0.999999
0.999999
0.999999
0.999999
0.999999
0.999999
0.999999
0.999999
0.999999
0.999999
0.999999
0.999999
0.999999
0.999999
0.999999
0.999999
0.999999
0.999999
0.999999
0.999999
0.999999
0.999999
0.999999
0.999999
0.999999
0.999999
0.999999
0.999999
0.999999
0.999999
)
;

boundaryField
{
    inlet
    {
        type            zeroGradient;
    }
    outlet
    {
        type            zeroGradient;
    }
    yzfaces
    {
        type            empty;
    }
}

Saturation b:  Min(Sb) = 0.866964 Max(Sb) = 0.999999
DILUPBiCGStab:  Solving for yCO2, Initial residual = 0.000188757, Final residual = 9.39594e-37, No Iterations 1
yH2O:  Min(yH2O) = 0.0015883 Max(yH2O) = 1
DILUPBiCGStab:  Solving for xCO2, Initial residual = 0.00554076, Final residual = 4.67659e-37, No Iterations 1
xCO2:  Min(xCO2) = 7.57267e-195 Max(xCO2) = 0.0266936
DICPCG:  Solving for p, Initial residual = 0.00086627, Final residual = 9.14803e-20, No Iterations 1
Sb_error is = 1.11022e-16
Sb evaporation:  Min(Sb) = 0.866964 Max(Sb) = 0.999999
ExecutionTime = 0.0625 s  ClockTime = 0 s

Coats CFL Number mean: 7.08579e-05 max: 0.00708579
deltaT = 0.030994
Time = 0.194155

diagonal:  Solving for Sb, Initial residual = 0, Final residual = 0, No Iterations 0
Saturation b: dimensions      [0 0 0 0 0 0 0];

internalField   nonuniform List<scalar> 
100
(
0.841909
0.999601
0.999999
0.999999
0.999999
0.999999
0.999999
0.999999
0.999999
0.999999
0.999999
0.999999
0.999999
0.999999
0.999999
0.999999
0.999999
0.999999
0.999999
0.999999
0.999999
0.999999
0.999999
0.999999
0.999999
0.999999
0.999999
0.999999
0.999999
0.999999
0.999999
0.999999
0.999999
0.999999
0.999999
0.999999
0.999999
0.999999
0.999999
0.999999
0.999999
0.999999
0.999999
0.999999
0.999999
0.999999
0.999999
0.999999
0.999999
0.999999
0.999999
0.999999
0.999999
0.999999
0.999999
0.999999
0.999999
0.999999
0.999999
0.999999
0.999999
0.999999
0.999999
0.999999
0.999999
0.999999
0.999999
0.999999
0.999999
0.999999
0.999999
0.999999
0.999999
0.999999
0.999999
0.999999
0.999999
0.999999
0.999999
0.999999
0.999999
0.999999
0.999999
0.999999
0.999999
0.999999
0.999999
0.999999
0.999999
0.999999
0.999999
0.999999
0.999999
0.999999
0.999999
0.999999
0.999999
0.999999
0.999999
0.999999
)
;

boundaryField
{
    inlet
    {
        type            zeroGradient;
    }
    outlet
    {
        type            zeroGradient;
    }
    yzfaces
    {
        type            empty;
    }
}

Saturation b:  Min(Sb) = 0.841909 Max(Sb) = 0.999999
DILUPBiCGStab:  Solving for yCO2, Initial residual = 0.000195597, Final residual = 4.21638e-21, No Iterations 1
yH2O:  Min(yH2O) = 0.00158536 Max(yH2O) = 1
DILUPBiCGStab:  Solving for xCO2, Initial residual = 0.00653984, Final residual = 3.82217e-37, No Iterations 1
xCO2:  Min(xCO2) = 2.0007e-187 Max(xCO2) = 0.0267533
DICPCG:  Solving for p, Initial residual = 0.000990038, Final residual = 3.27871e-20, No Iterations 1
Sb_error is = 1.11022e-16
Sb evaporation:  Min(Sb) = 0.841909 Max(Sb) = 0.999999
ExecutionTime = 0.0625 s  ClockTime = 0 s

Coats CFL Number mean: 0.000159331 max: 0.0159331
deltaT = 0.0366293
Time = 0.230784

diagonal:  Solving for Sb, Initial residual = 0, Final residual = 0, No Iterations 0
Saturation b: dimensions      [0 0 0 0 0 0 0];

internalField   nonuniform List<scalar> 
100
(
0.81265
0.998961
0.999999
0.999999
0.999999
0.999999
0.999999
0.999999
0.999999
0.999999
0.999999
0.999999
0.999999
0.999999
0.999999
0.999999
0.999999
0.999999
0.999999
0.999999
0.999999
0.999999
0.999999
0.999999
0.999999
0.999999
0.999999
0.999999
0.999999
0.999999
0.999999
0.999999
0.999999
0.999999
0.999999
0.999999
0.999999
0.999999
0.999999
0.999999
0.999999
0.999999
0.999999
0.999999
0.999999
0.999999
0.999999
0.999999
0.999999
0.999999
0.999999
0.999999
0.999999
0.999999
0.999999
0.999999
0.999999
0.999999
0.999999
0.999999
0.999999
0.999999
0.999999
0.999999
0.999999
0.999999
0.999999
0.999999
0.999999
0.999999
0.999999
0.999999
0.999999
0.999999
0.999999
0.999999
0.999999
0.999999
0.999999
0.999999
0.999999
0.999999
0.999999
0.999999
0.999999
0.999999
0.999999
0.999999
0.999999
0.999999
0.999999
0.999999
0.999999
0.999999
0.999999
0.999999
0.999999
0.999999
0.999999
0.999999
)
;

boundaryField
{
    inlet
    {
        type            zeroGradient;
    }
    outlet
    {
        type            zeroGradient;
    }
    yzfaces
    {
        type            empty;
    }
}

Saturation b:  Min(Sb) = 0.81265 Max(Sb) = 0.999999
DILUPBiCGStab:  Solving for yCO2, Initial residual = 0.000203568, Final residual = 4.1932e-21, No Iterations 1
yH2O:  Min(yH2O) = 0.00158184 Max(yH2O) = 1
DILUPBiCGStab:  Solving for xCO2, Initial residual = 0.00765098, Final residual = 4.80294e-37, No Iterations 1
xCO2:  Min(xCO2) = 3.96539e-180 Max(xCO2) = 0.026822
DICPCG:  Solving for p, Initial residual = 0.00107194, Final residual = 3.0276e-19, No Iterations 1
Sb_error is = 1.11022e-16
Sb evaporation:  Min(Sb) = 0.81265 Max(Sb) = 0.999999
ExecutionTime = 0.0625 s  ClockTime = 0 s

Coats CFL Number mean: 0.000354446 max: 0.0354446
deltaT = 0.0427342
Time = 0.273518

diagonal:  Solving for Sb, Initial residual = 0, Final residual = 0, No Iterations 0
Saturation b: dimensions      [0 0 0 0 0 0 0];

internalField   nonuniform List<scalar> 
100
(
0.779421
0.997309
0.999999
0.999999
0.999999
0.999999
0.999999
0.999999
0.999999
0.999999
0.999999
0.999999
0.999999
0.999999
0.999999
0.999999
0.999999
0.999999
0.999999
0.999999
0.999999
0.999999
0.999999
0.999999
0.999999
0.999999
0.999999
0.999999
0.999999
0.999999
0.999999
0.999999
0.999999
0.999999
0.999999
0.999999
0.999999
0.999999
0.999999
0.999999
0.999999
0.999999
0.999999
0.999999
0.999999
0.999999
0.999999
0.999999
0.999999
0.999999
0.999999
0.999999
0.999999
0.999999
0.999999
0.999999
0.999999
0.999999
0.999999
0.999999
0.999999
0.999999
0.999999
0.999999
0.999999
0.999999
0.999999
0.999999
0.999999
0.999999
0.999999
0.999999
0.999999
0.999999
0.999999
0.999999
0.999999
0.999999
0.999999
0.999999
0.999999
0.999999
0.999999
0.999999
0.999999
0.999999
0.999999
0.999999
0.999999
0.999999
0.999999
0.999999
0.999999
0.999999
0.999999
0.999999
0.999999
0.999999
0.999999
0.999999
)
;

boundaryField
{
    inlet
    {
        type            zeroGradient;
    }
    outlet
    {
        type            zeroGradient;
    }
    yzfaces
    {
        type            empty;
    }
}

Saturation b:  Min(Sb) = 0.779421 Max(Sb) = 0.999999
DILUPBiCGStab:  Solving for yCO2, Initial residual = 0.000210682, Final residual = 1.23036e-28, No Iterations 1
yH2O:  Min(yH2O) = 0.00158 Max(yH2O) = 1
DILUPBiCGStab:  Solving for xCO2, Initial residual = 0.00871795, Final residual = 2.44777e-36, No Iterations 1
xCO2:  Min(xCO2) = 2.4717e-173 Max(xCO2) = 0.0268913
DICPCG:  Solving for p, Initial residual = 0.00101826, Final residual = 2.47965e-19, No Iterations 1
Sb_error is = 0
Sb evaporation:  Min(Sb) = 0.779421 Max(Sb) = 0.999999
ExecutionTime = 0.0625 s  ClockTime = 0 s

Coats CFL Number mean: 0.000739814 max: 0.0739813
deltaT = 0.0484321
Time = 0.321951

diagonal:  Solving for Sb, Initial residual = 0, Final residual = 0, No Iterations 0
Saturation b: dimensions      [0 0 0 0 0 0 0];

internalField   nonuniform List<scalar> 
100
(
0.7439
0.993298
0.999999
0.999999
0.999999
0.999999
0.999999
0.999999
0.999999
0.999999
0.999999
0.999999
0.999999
0.999999
0.999999
0.999999
0.999999
0.999999
0.999999
0.999999
0.999999
0.999999
0.999999
0.999999
0.999999
0.999999
0.999999
0.999999
0.999999
0.999999
0.999999
0.999999
0.999999
0.999999
0.999999
0.999999
0.999999
0.999999
0.999999
0.999999
0.999999
0.999999
0.999999
0.999999
0.999999
0.999999
0.999999
0.999999
0.999999
0.999999
0.999999
0.999999
0.999999
0.999999
0.999999
0.999999
0.999999
0.999999
0.999999
0.999999
0.999999
0.999999
0.999999
0.999999
0.999999
0.999999
0.999999
0.999999
0.999999
0.999999
0.999999
0.999999
0.999999
0.999999
0.999999
0.999999
0.999999
0.999999
0.999999
0.999999
0.999999
0.999999
0.999999
0.999999
0.999999
0.999999
0.999999
0.999999
0.999999
0.999999
0.999999
0.999999
0.999999
0.999999
0.999999
0.999999
0.999999
0.999999
0.999999
0.999999
)
;

boundaryField
{
    inlet
    {
        type            zeroGradient;
    }
    outlet
    {
        type            zeroGradient;
    }
    yzfaces
    {
        type            empty;
    }
}

Saturation b:  Min(Sb) = 0.7439 Max(Sb) = 0.999999
DILUPBiCGStab:  Solving for yCO2, Initial residual = 0.000212502, Final residual = 3.97546e-21, No Iterations 1
yH2O:  Min(yH2O) = 0.00158335 Max(yH2O) = 1
DILUPBiCGStab:  Solving for xCO2, Initial residual = 0.00938594, Final residual = 9.28172e-35, No Iterations 1
xCO2:  Min(xCO2) = 1.23213e-167 Max(xCO2) = 0.0269397
DICPCG:  Solving for p, Initial residual = 0.000693308, Final residual = 1.07621e-19, No Iterations 1
Sb_error is = 1.11022e-16
Sb evaporation:  Min(Sb) = 0.7439 Max(Sb) = 0.999999
ExecutionTime = 0.0625 s  ClockTime = 0 s

Coats CFL Number mean: 0.00131925 max: 0.131923
deltaT = 0.0565041
Time = 0.378455

diagonal:  Solving for Sb, Initial residual = 0, Final residual = 0, No Iterations 0
Saturation b: dimensions      [0 0 0 0 0 0 0];

internalField   nonuniform List<scalar> 
100
(
0.706923
0.984156
0.999999
0.999999
0.999999
0.999999
0.999999
0.999999
0.999999
0.999999
0.999999
0.999999
0.999999
0.999999
0.999999
0.999999
0.999999
0.999999
0.999999
0.999999
0.999999
0.999999
0.999999
0.999999
0.999999
0.999999
0.999999
0.999999
0.999999
0.999999
0.999999
0.999999
0.999999
0.999999
0.999999
0.999999
0.999999
0.999999
0.999999
0.999999
0.999999
0.999999
0.999999
0.999999
0.999999
0.999999
0.999999
0.999999
0.999999
0.999999
0.999999
0.999999
0.999999
0.999999
0.999999
0.999999
0.999999
0.999999
0.999999
0.999999
0.999999
0.999999
0.999999
0.999999
0.999999
0.999999
0.999999
0.999999
0.999999
0.999999
0.999999
0.999999
0.999999
0.999999
0.999999
0.999999
0.999999
0.999999
0.999999
0.999999
0.999999
0.999999
0.999999
0.999999
0.999999
0.999999
0.999999
0.999999
0.999999
0.999999
0.999999
0.999999
0.999999
0.999999
0.999999
0.999999
0.999999
0.999999
0.999999
0.999999
)
;

boundaryField
{
    inlet
    {
        type            zeroGradient;
    }
    outlet
    {
        type            zeroGradient;
    }
    yzfaces
    {
        type            empty;
    }
}

Saturation b:  Min(Sb) = 0.706923 Max(Sb) = 0.999999
DILUPBiCGStab:  Solving for yCO2, Initial residual = 0.000216564, Final residual = 7.8917e-21, No Iterations 1
yH2O:  Min(yH2O) = 0.00157563 Max(yH2O) = 1
DILUPBiCGStab:  Solving for xCO2, Initial residual = 0.00993881, Final residual = 1.25374e-35, No Iterations 1
xCO2:  Min(xCO2) = 5.37798e-161 Max(xCO2) = 0.0269783
DICPCG:  Solving for p, Initial residual = 0.000359223, Final residual = 1.32054e-19, No Iterations 1
Sb_error is = 1.11022e-16
Sb evaporation:  Min(Sb) = 0.706923 Max(Sb) = 0.999999
ExecutionTime = 0.0625 s  ClockTime = 0 s

Coats CFL Number mean: 0.00200444 max: 0.200416
deltaT = 0.0621545
Time = 0.440609

diagonal:  Solving for Sb, Initial residual = 0, Final residual = 0, No Iterations 0
Saturation b: dimensions      [0 0 0 0 0 0 0];

internalField   nonuniform List<scalar> 
100
(
0.673548
0.966801
0.999999
0.999999
0.999999
0.999999
0.999999
0.999999
0.999999
0.999999
0.999999
0.999999
0.999999
0.999999
0.999999
0.999999
0.999999
0.999999
0.999999
0.999999
0.999999
0.999999
0.999999
0.999999
0.999999
0.999999
0.999999
0.999999
0.999999
0.999999
0.999999
0.999999
0.999999
0.999999
0.999999
0.999999
0.999999
0.999999
0.999999
0.999999
0.999999
0.999999
0.999999
0.999999
0.999999
0.999999
0.999999
0.999999
0.999999
0.999999
0.999999
0.999999
0.999999
0.999999
0.999999
0.999999
0.999999
0.999999
0.999999
0.999999
0.999999
0.999999
0.999999
0.999999
0.999999
0.999999
0.999999
0.999999
0.999999
0.999999
0.999999
0.999999
0.999999
0.999999
0.999999
0.999999
0.999999
0.999999
0.999999
0.999999
0.999999
0.999999
0.999999
0.999999
0.999999
0.999999
0.999999
0.999999
0.999999
0.999999
0.999999
0.999999
0.999999
0.999999
0.999999
0.999999
0.999999
0.999999
0.999999
0.999999
)
;

boundaryField
{
    inlet
    {
        type            zeroGradient;
    }
    outlet
    {
        type            zeroGradient;
    }
    yzfaces
    {
        type            empty;
    }
}

Saturation b:  Min(Sb) = 0.673548 Max(Sb) = 0.999999
DILUPBiCGStab:  Solving for yCO2, Initial residual = 0.000203065, Final residual = 8.29484e-37, No Iterations 1
yH2O:  Min(yH2O) = 0.00158188 Max(yH2O) = 1
DILUPBiCGStab:  Solving for xCO2, Initial residual = 0.00931896, Final residual = 4.32998e-36, No Iterations 1
xCO2:  Min(xCO2) = 2.11815e-156 Max(xCO2) = 0.0269369
DICPCG:  Solving for p, Initial residual = 0.001359, Final residual = 1.3321e-19, No Iterations 1
Sb_error is = 2.22045e-16
Sb evaporation:  Min(Sb) = 0.673548 Max(Sb) = 0.999999
ExecutionTime = 0.0625 s  ClockTime = 0 s

Coats CFL Number mean: 0.00231004 max: 0.230695
deltaT = 0.0699239
Time = 0.510533

diagonal:  Solving for Sb, Initial residual = 0, Final residual = 0, No Iterations 0
Saturation b: dimensions      [0 0 0 0 0 0 0];

internalField   nonuniform List<scalar> 
100
(
0.644598
0.938682
0.999998
0.999999
0.999999
0.999999
0.999999
0.999999
0.999999
0.999999
0.999999
0.999999
0.999999
0.999999
0.999999
0.999999
0.999999
0.999999
0.999999
0.999999
0.999999
0.999999
0.999999
0.999999
0.999999
0.999999
0.999999
0.999999
0.999999
0.999999
0.999999
0.999999
0.999999
0.999999
0.999999
0.999999
0.999999
0.999999
0.999999
0.999999
0.999999
0.999999
0.999999
0.999999
0.999999
0.999999
0.999999
0.999999
0.999999
0.999999
0.999999
0.999999
0.999999
0.999999
0.999999
0.999999
0.999999
0.999999
0.999999
0.999999
0.999999
0.999999
0.999999
0.999999
0.999999
0.999999
0.999999
0.999999
0.999999
0.999999
0.999999
0.999999
0.999999
0.999999
0.999999
0.999999
0.999999
0.999999
0.999999
0.999999
0.999999
0.999999
0.999999
0.999999
0.999999
0.999999
0.999999
0.999999
0.999999
0.999999
0.999999
0.999999
0.999999
0.999999
0.999999
0.999999
0.999999
0.999999
0.999999
0.999999
)
;

boundaryField
{
    inlet
    {
        type            zeroGradient;
    }
    outlet
    {
        type            zeroGradient;
    }
    yzfaces
    {
        type            empty;
    }
}

Saturation b:  Min(Sb) = 0.644598 Max(Sb) = 0.999999
DILUPBiCGStab:  Solving for yCO2, Initial residual = 0.000135597, Final residual = 1.13141e-22, No Iterations 1
yH2O:  Min(yH2O) = 0.00162068 Max(yH2O) = 1
DILUPBiCGStab:  Solving for xCO2, Initial residual = 0.00799881, Final residual = 1.48278e-37, No Iterations 1
xCO2:  Min(xCO2) = 3.37057e-151 Max(xCO2) = 0.0271392
DICPCG:  Solving for p, Initial residual = 0.00225947, Final residual = 1.48771e-19, No Iterations 1
Sb_error is = 2.22045e-16
Sb evaporation:  Min(Sb) = 0.644598 Max(Sb) = 0.999999
ExecutionTime = 0.0625 s  ClockTime = 0 s

Coats CFL Number mean: 0.00237518 max: 0.234978
deltaT = 0.0815778
Time = 0.592111

diagonal:  Solving for Sb, Initial residual = 0, Final residual = 0, No Iterations 0
Saturation b: dimensions      [0 0 0 0 0 0 0];

internalField   nonuniform List<scalar> 
100
(
0.619251
0.897471
0.999976
0.999999
0.999999
0.999999
0.999999
0.999999
0.999999
0.999999
0.999999
0.999999
0.999999
0.999999
0.999999
0.999999
0.999999
0.999999
0.999999
0.999999
0.999999
0.999999
0.999999
0.999999
0.999999
0.999999
0.999999
0.999999
0.999999
0.999999
0.999999
0.999999
0.999999
0.999999
0.999999
0.999999
0.999999
0.999999
0.999999
0.999999
0.999999
0.999999
0.999999
0.999999
0.999999
0.999999
0.999999
0.999999
0.999999
0.999999
0.999999
0.999999
0.999999
0.999999
0.999999
0.999999
0.999999
0.999999
0.999999
0.999999
0.999999
0.999999
0.999999
0.999999
0.999999
0.999999
0.999999
0.999999
0.999999
0.999999
0.999999
0.999999
0.999999
0.999999
0.999999
0.999999
0.999999
0.999999
0.999999
0.999999
0.999999
0.999999
0.999999
0.999999
0.999999
0.999999
0.999999
0.999999
0.999999
0.999999
0.999999
0.999999
0.999999
0.999999
0.999999
0.999999
0.999999
0.999999
0.999999
0.999999
)
;

boundaryField
{
    inlet
    {
        type            zeroGradient;
    }
    outlet
    {
        type            zeroGradient;
    }
    yzfaces
    {
        type            empty;
    }
}

Saturation b:  Min(Sb) = 0.619251 Max(Sb) = 0.999999
DILUPBiCGStab:  Solving for yCO2, Initial residual = 0.0001485, Final residual = 2.74232e-21, No Iterations 1
yH2O:  Min(yH2O) = 0.00160002 Max(yH2O) = 1
DILUPBiCGStab:  Solving for xCO2, Initial residual = 0.00941538, Final residual = 2.08786e-36, No Iterations 1
xCO2:  Min(xCO2) = 9.79296e-145 Max(xCO2) = 0.0272661
DICPCG:  Solving for p, Initial residual = 0.00298226, Final residual = 4.69968e-19, No Iterations 1
Sb_error is = 0
Sb evaporation:  Min(Sb) = 0.619251 Max(Sb) = 0.999999
ExecutionTime = 0.0625 s  ClockTime = 0 s

Coats CFL Number mean: 0.00247201 max: 0.229951
deltaT = 0.0815778
Time = 0.673689

diagonal:  Solving for Sb, Initial residual = 0, Final residual = 0, No Iterations 0
Saturation b: dimensions      [0 0 0 0 0 0 0];

internalField   nonuniform List<scalar> 
100
(
0.600315
0.850029
0.999777
0.999999
0.999999
0.999999
0.999999
0.999999
0.999999
0.999999
0.999999
0.999999
0.999999
0.999999
0.999999
0.999999
0.999999
0.999999
0.999999
0.999999
0.999999
0.999999
0.999999
0.999999
0.999999
0.999999
0.999999
0.999999
0.999999
0.999999
0.999999
0.999999
0.999999
0.999999
0.999999
0.999999
0.999999
0.999999
0.999999
0.999999
0.999999
0.999999
0.999999
0.999999
0.999999
0.999999
0.999999
0.999999
0.999999
0.999999
0.999999
0.999999
0.999999
0.999999
0.999999
0.999999
0.999999
0.999999
0.999999
0.999999
0.999999
0.999999
0.999999
0.999999
0.999999
0.999999
0.999999
0.999999
0.999999
0.999999
0.999999
0.999999
0.999999
0.999999
0.999999
0.999999
0.999999
0.999999
0.999999
0.999999
0.999999
0.999999
0.999999
0.999999
0.999999
0.999999
0.999999
0.999999
0.999999
0.999999
0.999999
0.999999
0.999999
0.999999
0.999999
0.999999
0.999999
0.999999
0.999999
0.999999
)
;

boundaryField
{
    inlet
    {
        type            zeroGradient;
    }
    outlet
    {
        type            zeroGradient;
    }
    yzfaces
    {
        type            empty;
    }
}

Saturation b:  Min(Sb) = 0.600315 Max(Sb) = 0.999999
DILUPBiCGStab:  Solving for yCO2, Initial residual = 0.000139884, Final residual = 4.84437e-21, No Iterations 1
yH2O:  Min(yH2O) = 0.00161593 Max(yH2O) = 1
DILUPBiCGStab:  Solving for xCO2, Initial residual = 0.00941198, Final residual = 9.83536e-21, No Iterations 1
xCO2:  Min(xCO2) = 8.07278e-143 Max(xCO2) = 0.0272755
DICPCG:  Solving for p, Initial residual = 0.00300085, Final residual = 9.88084e-20, No Iterations 1
Sb_error is = 0
Sb evaporation:  Min(Sb) = 0.600315 Max(Sb) = 0.999999
ExecutionTime = 0.0625 s  ClockTime = 0 s

Coats CFL Number mean: 0.00262036 max: 0.193155
deltaT = 0.0815778
Time = 0.755267

diagonal:  Solving for Sb, Initial residual = 0, Final residual = 0, No Iterations 0
Saturation b: dimensions      [0 0 0 0 0 0 0];

[...]
yH2O:  Min(yH2O) = 0.00160829 Max(yH2O) = 0.00194787
DILUPBiCGStab:  Solving for xCO2, Initial residual = 0.000369285, Final residual = 5.50559e-36, No Iterations 1
xCO2:  Min(xCO2) = 0.0259263 Max(xCO2) = 0.026292
DICPCG:  Solving for p, Initial residual = 8.60086e-06, Final residual = 1.05389e-17, No Iterations 1
Sb_error is = -0.000106031
Sb evaporation:  Min(Sb) = 0.26037 Max(Sb) = 0.550804
ExecutionTime = 5.67188 s  ClockTime = 8 s

Coats CFL Number mean: 0.214268 max: 0.429934
deltaT = 0.166667
Time = 78.5

diagonal:  Solving for Sb, Initial residual = 0, Final residual = 0, No Iterations 0
Saturation b: dimensions      [0 0 0 0 0 0 0];

internalField   nonuniform List<scalar> 
100
(
0.260264
0.295806
0.318473
0.335235
0.348575
0.35967
0.369179
0.377502
0.384907
0.391579
0.397652
0.403226
0.408378
0.413168
0.417646
0.421849
0.42581
0.429557
0.433111
0.436493
0.439718
0.4428
0.445753
0.448587
0.451311
0.453935
0.456465
0.458908
0.46127
0.463557
0.465774
0.467924
0.470013
0.472043
0.474018
0.475941
0.477816
0.479644
0.481428
0.48317
0.484873
0.486537
0.488166
0.489761
0.491323
0.492853
0.494354
0.495826
0.497271
0.498689
0.500082
0.501451
0.502797
0.50412
0.505422
0.506703
0.507965
0.509207
0.51043
0.511636
0.512825
0.513997
0.515153
0.516294
0.517419
0.518531
0.519628
0.520712
0.521783
0.522841
0.523888
0.524922
0.525945
0.526958
0.527959
0.528951
0.529933
0.530905
0.531868
0.532823
0.533769
0.534706
0.535637
0.536559
0.537475
0.538384
0.539286
0.540182
0.541073
0.541959
0.542839
0.543715
0.544587
0.545455
0.54632
0.547183
0.548044
0.548903
0.549761
0.55062
)
;

boundaryField
{
    inlet
    {
        type            zeroGradient;
    }
    outlet
    {
        type            zeroGradient;
    }
    yzfaces
    {
        type            empty;
    }
}

Saturation b:  Min(Sb) = 0.260264 Max(Sb) = 0.55062
DILUPBiCGStab:  Solving for yCO2, Initial residual = 0.253518, Final residual = 9.61603e-34, No Iterations 1
yH2O:  Min(yH2O) = 0.00160838 Max(yH2O) = 0.00194788
DILUPBiCGStab:  Solving for xCO2, Initial residual = 0.000368577, Final residual = 3.64327e-36, No Iterations 1
xCO2:  Min(xCO2) = 0.0259263 Max(xCO2) = 0.0262915
DICPCG:  Solving for p, Initial residual = 8.56094e-06, Final residual = 8.94277e-18, No Iterations 1
Sb_error is = -0.00010577
Sb evaporation:  Min(Sb) = 0.260264 Max(Sb) = 0.55062
ExecutionTime = 5.67188 s  ClockTime = 8 s

Coats CFL Number mean: 0.213788 max: 0.428886
deltaT = 0.166667
Time = 78.6667

diagonal:  Solving for Sb, Initial residual = 0, Final residual = 0, No Iterations 0
Saturation b: dimensions      [0 0 0 0 0 0 0];

internalField   nonuniform List<scalar> 
100
(
0.260159
0.295688
0.318349
0.335109
0.348446
0.35954
0.369047
0.37737
0.384774
0.391445
0.397517
0.403091
0.408242
0.413032
0.417509
0.421712
0.425673
0.429419
0.432973
0.436354
0.439579
0.442661
0.445613
0.448447
0.451171
0.453794
0.456324
0.458766
0.461128
0.463415
0.465631
0.467782
0.46987
0.4719
0.473875
0.475798
0.477672
0.4795
0.481283
0.483025
0.484728
0.486392
0.488021
0.489615
0.491176
0.492707
0.494207
0.495679
0.497123
0.498541
0.499934
0.501303
0.502648
0.503971
0.505273
0.506553
0.507814
0.509056
0.510279
0.511485
0.512673
0.513845
0.515001
0.516141
0.517266
0.518377
0.519474
0.520557
0.521628
0.522686
0.523732
0.524766
0.525789
0.5268
0.527802
0.528793
0.529774
0.530746
0.531708
0.532662
0.533607
0.534544
0.535474
0.536396
0.537311
0.538219
0.53912
0.540016
0.540906
0.54179
0.542669
0.543544
0.544415
0.545282
0.546146
0.547007
0.547866
0.548724
0.54958
0.550437
)
;

boundaryField
{
    inlet
    {
        type            zeroGradient;
    }
    outlet
    {
        type            zeroGradient;
    }
    yzfaces
    {
        type            empty;
    }
}

Saturation b:  Min(Sb) = 0.260159 Max(Sb) = 0.550437
DILUPBiCGStab:  Solving for yCO2, Initial residual = 0.253663, Final residual = 1.20423e-34, No Iterations 1
yH2O:  Min(yH2O) = 0.00160846 Max(yH2O) = 0.00194788
DILUPBiCGStab:  Solving for xCO2, Initial residual = 0.000367872, Final residual = 2.39459e-36, No Iterations 1
xCO2:  Min(xCO2) = 0.0259263 Max(xCO2) = 0.0262911
DICPCG:  Solving for p, Initial residual = 8.52176e-06, Final residual = 7.97189e-18, No Iterations 1
Sb_error is = -0.00010551
Sb evaporation:  Min(Sb) = 0.260159 Max(Sb) = 0.550437
ExecutionTime = 5.67188 s  ClockTime = 8 s

Coats CFL Number mean: 0.21331 max: 0.427845
deltaT = 0.166667
Time = 78.8333

diagonal:  Solving for Sb, Initial residual = 0, Final residual = 0, No Iterations 0
Saturation b: dimensions      [0 0 0 0 0 0 0];

internalField   nonuniform List<scalar> 
100
(
0.260054
0.29557
0.318226
0.334982
0.348318
0.359411
0.368916
0.377237
0.384641
0.391311
0.397383
0.402956
0.408106
0.412896
0.417372
0.421575
0.425535
0.429281
0.432835
0.436216
0.43944
0.442522
0.445474
0.448307
0.451031
0.453654
0.456183
0.458625
0.460987
0.463274
0.46549
0.467639
0.469727
0.471757
0.473732
0.475655
0.477528
0.479356
0.481139
0.482881
0.484583
0.486247
0.487875
0.489469
0.491031
0.49256
0.494061
0.495532
0.496976
0.498394
0.499786
0.501154
0.5025
0.503822
0.505123
0.506404
0.507665
0.508906
0.510129
0.511334
0.512522
0.513693
0.514849
0.515988
0.517113
0.518224
0.51932
0.520403
0.521473
0.522531
0.523576
0.52461
0.525632
0.526644
0.527644
0.528635
0.529615
0.530587
0.531549
0.532502
0.533446
0.534383
0.535312
0.536233
0.537147
0.538054
0.538955
0.53985
0.540739
0.541622
0.5425
0.543374
0.544244
0.54511
0.545972
0.546832
0.547689
0.548545
0.5494
0.550254
)
;

boundaryField
{
    inlet
    {
        type            zeroGradient;
    }
    outlet
    {
        type            zeroGradient;
    }
    yzfaces
    {
        type            empty;
    }
}

Saturation b:  Min(Sb) = 0.260054 Max(Sb) = 0.550254
DILUPBiCGStab:  Solving for yCO2, Initial residual = 0.253807, Final residual = 1.16325e-34, No Iterations 1
yH2O:  Min(yH2O) = 0.00160855 Max(yH2O) = 0.00194788
DILUPBiCGStab:  Solving for xCO2, Initial residual = 0.000367171, Final residual = 4.89759e-36, No Iterations 1
xCO2:  Min(xCO2) = 0.0259263 Max(xCO2) = 0.0262907
DICPCG:  Solving for p, Initial residual = 8.48329e-06, Final residual = 1.06066e-17, No Iterations 1
Sb_error is = -0.000105252
Sb evaporation:  Min(Sb) = 0.260054 Max(Sb) = 0.550254
ExecutionTime = 5.6875 s  ClockTime = 8 s

Coats CFL Number mean: 0.212834 max: 0.42681
deltaT = 0.166667
Time = 79

diagonal:  Solving for Sb, Initial residual = 0, Final residual = 0, No Iterations 0
Saturation b: dimensions      [0 0 0 0 0 0 0];

internalField   nonuniform List<scalar> 
100
(
0.259949
0.295452
0.318103
0.334857
0.34819
0.359281
0.368785
0.377106
0.384508
0.391178
0.397249
0.402821
0.407971
0.41276
0.417236
0.421438
0.425398
0.429144
0.432697
0.436077
0.439301
0.442383
0.445335
0.448168
0.450891
0.453514
0.456043
0.458485
0.460846
0.463132
0.465348
0.467498
0.469585
0.471615
0.473589
0.475512
0.477385
0.479212
0.480995
0.482737
0.484438
0.486102
0.48773
0.489324
0.490885
0.492415
0.493914
0.495385
0.496829
0.498247
0.499639
0.501007
0.502351
0.503674
0.504975
0.506255
0.507515
0.508756
0.509979
0.511184
0.512371
0.513542
0.514697
0.515836
0.516961
0.518071
0.519167
0.52025
0.521319
0.522376
0.523421
0.524454
0.525476
0.526487
0.527487
0.528477
0.529457
0.530428
0.531389
0.532342
0.533286
0.534222
0.53515
0.536071
0.536984
0.53789
0.53879
0.539684
0.540572
0.541455
0.542332
0.543205
0.544073
0.544938
0.545799
0.546657
0.547513
0.548368
0.549221
0.550073
)
;

boundaryField
{
    inlet
    {
        type            zeroGradient;
    }
    outlet
    {
        type            zeroGradient;
    }
    yzfaces
    {
        type            empty;
    }
}

Saturation b:  Min(Sb) = 0.259949 Max(Sb) = 0.550073
DILUPBiCGStab:  Solving for yCO2, Initial residual = 0.253952, Final residual = 5.20678e-35, No Iterations 1
yH2O:  Min(yH2O) = 0.00160863 Max(yH2O) = 0.00194788
DILUPBiCGStab:  Solving for xCO2, Initial residual = 0.000366474, Final residual = 4.62895e-36, No Iterations 1
xCO2:  Min(xCO2) = 0.0259263 Max(xCO2) = 0.0262903
DICPCG:  Solving for p, Initial residual = 8.44551e-06, Final residual = 1.03583e-17, No Iterations 1
Sb_error is = -0.000104994
Sb evaporation:  Min(Sb) = 0.259949 Max(Sb) = 0.550073
ExecutionTime = 5.75 s  ClockTime = 8 s

Coats CFL Number mean: 0.21236 max: 0.425782
deltaT = 0.166667
Time = 79.1667

diagonal:  Solving for Sb, Initial residual = 0, Final residual = 0, No Iterations 0
Saturation b: dimensions      [0 0 0 0 0 0 0];

internalField   nonuniform List<scalar> 
100
(
0.259844
0.295335
0.317981
0.334731
0.348062
0.359152
0.368655
0.376974
0.384376
0.391045
0.397115
0.402686
0.407836
0.412625
0.4171
0.421302
0.425262
0.429007
0.43256
0.43594
0.439163
0.442245
0.445196
0.448029
0.450752
0.453374
0.455903
0.458344
0.460706
0.462991
0.465207
0.467356
0.469444
0.471473
0.473447
0.475369
0.477242
0.479069
0.480852
0.482593
0.484294
0.485958
0.487586
0.489179
0.49074
0.492269
0.493769
0.495239
0.496683
0.4981
0.499492
0.500859
0.502204
0.503526
0.504826
0.506106
0.507366
0.508607
0.509829
0.511033
0.512221
0.513391
0.514546
0.515685
0.516809
0.517919
0.519014
0.520096
0.521166
0.522222
0.523267
0.524299
0.525321
0.526331
0.527331
0.52832
0.5293
0.53027
0.531231
0.532183
0.533126
0.534061
0.534989
0.535909
0.536821
0.537727
0.538626
0.539519
0.540406
0.541288
0.542164
0.543036
0.543903
0.544767
0.545627
0.546484
0.547338
0.548191
0.549042
0.549893
)
;

boundaryField
{
    inlet
    {
        type            zeroGradient;
    }
    outlet
    {
        type            zeroGradient;
    }
    yzfaces
    {
        type            empty;
    }
}

Saturation b:  Min(Sb) = 0.259844 Max(Sb) = 0.549893
DILUPBiCGStab:  Solving for yCO2, Initial residual = 0.254095, Final residual = 7.86936e-35, No Iterations 1
yH2O:  Min(yH2O) = 0.00160872 Max(yH2O) = 0.00194788
DILUPBiCGStab:  Solving for xCO2, Initial residual = 0.000365781, Final residual = 2.95119e-36, No Iterations 1
xCO2:  Min(xCO2) = 0.0259263 Max(xCO2) = 0.0262898
DICPCG:  Solving for p, Initial residual = 8.4084e-06, Final residual = 9.21807e-18, No Iterations 1
Sb_error is = -0.000104738
Sb evaporation:  Min(Sb) = 0.259844 Max(Sb) = 0.549893
ExecutionTime = 5.75 s  ClockTime = 8 s

Coats CFL Number mean: 0.211889 max: 0.424761
deltaT = 0.166667
Time = 79.3333

diagonal:  Solving for Sb, Initial residual = 0, Final residual = 0, No Iterations 0
Saturation b: dimensions      [0 0 0 0 0 0 0];

internalField   nonuniform List<scalar> 
100
(
0.259739
0.295218
0.317859
0.334606
0.347935
0.359023
0.368525
0.376843
0.384244
0.390912
0.396981
0.402552
0.407702
0.41249
0.416965
0.421166
0.425125
0.42887
0.432422
0.435802
0.439025
0.442106
0.445058
0.44789
0.450613
0.453234
0.455763
0.458204
0.460565
0.462851
0.465066
0.467215
0.469302
0.471331
0.473305
0.475227
0.4771
0.478926
0.480709
0.48245
0.484151
0.485814
0.487441
0.489035
0.490595
0.492124
0.493623
0.495094
0.496537
0.497953
0.499345
0.500712
0.502056
0.503378
0.504678
0.505958
0.507217
0.508458
0.50968
0.510884
0.51207
0.513241
0.514395
0.515533
0.516657
0.517766
0.518862
0.519944
0.521012
0.522069
0.523113
0.524145
0.525166
0.526175
0.527175
0.528164
0.529143
0.530112
0.531072
0.532024
0.532967
0.533901
0.534828
0.535747
0.536659
0.537564
0.538462
0.539355
0.540241
0.541122
0.541997
0.542868
0.543734
0.544596
0.545455
0.546311
0.547164
0.548015
0.548864
0.549713
)
;

boundaryField
{
    inlet
    {
        type            zeroGradient;
    }
    outlet
    {
        type            zeroGradient;
    }
    yzfaces
    {
        type            empty;
    }
}

Saturation b:  Min(Sb) = 0.259739 Max(Sb) = 0.549713
DILUPBiCGStab:  Solving for yCO2, Initial residual = 0.254239, Final residual = 8.46974e-35, No Iterations 1
yH2O:  Min(yH2O) = 0.00160881 Max(yH2O) = 0.00194788
DILUPBiCGStab:  Solving for xCO2, Initial residual = 0.000365091, Final residual = 6.3754e-36, No Iterations 1
xCO2:  Min(xCO2) = 0.0259263 Max(xCO2) = 0.0262894
DICPCG:  Solving for p, Initial residual = 8.37193e-06, Final residual = 8.56349e-18, No Iterations 1
Sb_error is = -0.000104482
Sb evaporation:  Min(Sb) = 0.259739 Max(Sb) = 0.549713
ExecutionTime = 5.75 s  ClockTime = 8 s

Coats CFL Number mean: 0.21142 max: 0.423746
deltaT = 0.166667
Time = 79.5

diagonal:  Solving for Sb, Initial residual = 0, Final residual = 0, No Iterations 0
Saturation b: dimensions      [0 0 0 0 0 0 0];

internalField   nonuniform List<scalar> 
100
(
0.259635
0.295101
0.317737
0.334481
0.347808
0.358894
0.368395
0.376712
0.384112
0.390779
0.396848
0.402418
0.407567
0.412355
0.416829
0.42103
0.424989
0.428733
0.432286
0.435665
0.438888
0.441968
0.444919
0.447751
0.450474
0.453095
0.455623
0.458065
0.460425
0.462711
0.464925
0.467074
0.469161
0.471189
0.473163
0.475085
0.476957
0.478784
0.480566
0.482306
0.484007
0.48567
0.487297
0.48889
0.49045
0.491979
0.493478
0.494948
0.496391
0.497807
0.499199
0.500566
0.501909
0.503231
0.504531
0.50581
0.507069
0.508309
0.509531
0.510734
0.511921
0.513091
0.514244
0.515383
0.516506
0.517615
0.51871
0.519791
0.52086
0.521915
0.522959
0.523991
0.525011
0.52602
0.527019
0.528007
0.528986
0.529955
0.530915
0.531865
0.532808
0.533742
0.534668
0.535586
0.536497
0.537402
0.538299
0.539191
0.540076
0.540956
0.54183
0.5427
0.543565
0.544426
0.545284
0.546138
0.54699
0.547839
0.548687
0.549534
)
;

boundaryField
{
    inlet
    {
        type            zeroGradient;
    }
    outlet
    {
        type            zeroGradient;
    }
    yzfaces
    {
        type            empty;
    }
}

Saturation b:  Min(Sb) = 0.259635 Max(Sb) = 0.549534
DILUPBiCGStab:  Solving for yCO2, Initial residual = 0.254382, Final residual = 5.7972e-35, No Iterations 1
yH2O:  Min(yH2O) = 0.00160889 Max(yH2O) = 0.00194788
DILUPBiCGStab:  Solving for xCO2, Initial residual = 0.000364405, Final residual = 2.38448e-36, No Iterations 1
xCO2:  Min(xCO2) = 0.0259263 Max(xCO2) = 0.026289
DICPCG:  Solving for p, Initial residual = 8.33608e-06, Final residual = 8.246e-18, No Iterations 1
Sb_error is = -0.000104228
Sb evaporation:  Min(Sb) = 0.259635 Max(Sb) = 0.549534
ExecutionTime = 5.75 s  ClockTime = 8 s

Coats CFL Number mean: 0.210953 max: 0.422737
deltaT = 0.166667
Time = 79.6667

diagonal:  Solving for Sb, Initial residual = 0, Final residual = 0, No Iterations 0
Saturation b: dimensions      [0 0 0 0 0 0 0];

internalField   nonuniform List<scalar> 
100
(
0.259531
0.294985
0.317615
0.334356
0.347681
0.358766
0.368265
0.376581
0.38398
0.390647
0.396715
0.402285
0.407433
0.41222
0.416694
0.420895
0.424853
0.428597
0.432149
0.435528
0.438751
0.441831
0.444781
0.447613
0.450335
0.452957
0.455484
0.457925
0.460286
0.462571
0.464785
0.466934
0.46902
0.471048
0.473022
0.474943
0.476815
0.478641
0.480423
0.482164
0.483864
0.485527
0.487154
0.488746
0.490306
0.491835
0.493333
0.494803
0.496245
0.497662
0.499053
0.500419
0.501763
0.503084
0.504383
0.505662
0.506921
0.508161
0.509382
0.510585
0.511771
0.512941
0.514094
0.515232
0.516355
0.517464
0.518558
0.519639
0.520707
0.521762
0.522805
0.523837
0.524857
0.525866
0.526864
0.527852
0.52883
0.529798
0.530757
0.531708
0.532649
0.533583
0.534508
0.535426
0.536336
0.53724
0.538137
0.539027
0.539912
0.540791
0.541664
0.542533
0.543397
0.544257
0.545113
0.545966
0.546817
0.547665
0.548511
0.549356
)
;

boundaryField
{
    inlet
    {
        type            zeroGradient;
    }
    outlet
    {
        type            zeroGradient;
    }
    yzfaces
    {
        type            empty;
    }
}

Saturation b:  Min(Sb) = 0.259531 Max(Sb) = 0.549356
DILUPBiCGStab:  Solving for yCO2, Initial residual = 0.254525, Final residual = 2.37154e-34, No Iterations 1
yH2O:  Min(yH2O) = 0.00160898 Max(yH2O) = 0.00194788
DILUPBiCGStab:  Solving for xCO2, Initial residual = 0.000363722, Final residual = 2.97623e-36, No Iterations 1
xCO2:  Min(xCO2) = 0.0259263 Max(xCO2) = 0.0262886
DICPCG:  Solving for p, Initial residual = 8.30083e-06, Final residual = 8.79823e-18, No Iterations 1
Sb_error is = -0.000103975
Sb evaporation:  Min(Sb) = 0.259531 Max(Sb) = 0.549356
ExecutionTime = 5.76562 s  ClockTime = 8 s

Coats CFL Number mean: 0.210489 max: 0.421735
deltaT = 0.166667
Time = 79.8333

diagonal:  Solving for Sb, Initial residual = 0, Final residual = 0, No Iterations 0
Saturation b: dimensions      [0 0 0 0 0 0 0];

internalField   nonuniform List<scalar> 
100
(
0.259427
0.294869
0.317494
0.334232
0.347554
0.358638
0.368136
0.376451
0.383849
0.390515
0.396583
0.402152
0.407299
0.412086
0.41656
0.42076
0.424718
0.428461
0.432013
0.435391
0.438614
0.441694
0.444644
0.447475
0.450197
0.452818
0.455346
0.457786
0.460146
0.462431
0.464645
0.466793
0.46888
0.470908
0.472881
0.474802
0.476674
0.4785
0.480281
0.482021
0.483722
0.485384
0.487011
0.488603
0.490162
0.49169
0.493189
0.494658
0.4961
0.497516
0.498907
0.500273
0.501616
0.502937
0.504236
0.505515
0.506773
0.508013
0.509234
0.510437
0.511622
0.512791
0.513944
0.515082
0.516205
0.517313
0.518407
0.519487
0.520555
0.52161
0.522652
0.523683
0.524703
0.525711
0.526709
0.527696
0.528674
0.529642
0.5306
0.53155
0.532491
0.533424
0.534349
0.535266
0.536176
0.537078
0.537974
0.538864
0.539748
0.540626
0.541499
0.542366
0.543229
0.544088
0.544943
0.545795
0.546644
0.547491
0.548335
0.549179
)
;

boundaryField
{
    inlet
    {
        type            zeroGradient;
    }
    outlet
    {
        type            zeroGradient;
    }
    yzfaces
    {
        type            empty;
    }
}

Saturation b:  Min(Sb) = 0.259427 Max(Sb) = 0.549179
DILUPBiCGStab:  Solving for yCO2, Initial residual = 0.254668, Final residual = 1.02014e-34, No Iterations 1
yH2O:  Min(yH2O) = 0.00160906 Max(yH2O) = 0.00194788
DILUPBiCGStab:  Solving for xCO2, Initial residual = 0.000363043, Final residual = 5.28972e-36, No Iterations 1
xCO2:  Min(xCO2) = 0.0259263 Max(xCO2) = 0.0262882
DICPCG:  Solving for p, Initial residual = 8.26616e-06, Final residual = 9.88733e-18, No Iterations 1
Sb_error is = -0.000103723
Sb evaporation:  Min(Sb) = 0.259427 Max(Sb) = 0.549179
ExecutionTime = 5.76562 s  ClockTime = 8 s

Coats CFL Number mean: 0.210026 max: 0.420739
deltaT = 0.166667
Time = 80

diagonal:  Solving for Sb, Initial residual = 0, Final residual = 0, No Iterations 0
Saturation b: dimensions      [0 0 0 0 0 0 0];

internalField   nonuniform List<scalar> 
100
(
0.259324
0.294753
0.317373
0.334108
0.347428
0.35851
0.368007
0.376321
0.383718
0.390383
0.39645
0.402019
0.407166
0.411952
0.416425
0.420625
0.424583
0.428326
0.431877
0.435255
0.438477
0.441557
0.444507
0.447338
0.450059
0.45268
0.455207
0.457648
0.460007
0.462292
0.464506
0.466654
0.46874
0.470767
0.47274
0.474661
0.476533
0.478358
0.480139
0.481879
0.483579
0.485241
0.486868
0.48846
0.490019
0.491547
0.493045
0.494514
0.495956
0.497371
0.498762
0.500128
0.50147
0.502791
0.50409
0.505368
0.506626
0.507865
0.509086
0.510288
0.511474
0.512642
0.513795
0.514932
0.516054
0.517162
0.518256
0.519336
0.520403
0.521458
0.5225
0.52353
0.524549
0.525557
0.526554
0.527541
0.528518
0.529486
0.530444
0.531393
0.532333
0.533266
0.53419
0.535106
0.536015
0.536917
0.537813
0.538702
0.539585
0.540462
0.541334
0.5422
0.543062
0.54392
0.544774
0.545625
0.546472
0.547317
0.548161
0.549002
)
;

boundaryField
{
    inlet
    {
        type            zeroGradient;
    }
    outlet
    {
        type            zeroGradient;
    }
    yzfaces
    {
        type            empty;
    }
}

Saturation b:  Min(Sb) = 0.259324 Max(Sb) = 0.549002
DILUPBiCGStab:  Solving for yCO2, Initial residual = 0.25481, Final residual = 8.84935e-35, No Iterations 1
yH2O:  Min(yH2O) = 0.00160915 Max(yH2O) = 0.00194788
DILUPBiCGStab:  Solving for xCO2, Initial residual = 0.000362368, Final residual = 4.61257e-36, No Iterations 1
xCO2:  Min(xCO2) = 0.0259263 Max(xCO2) = 0.0262878
DICPCG:  Solving for p, Initial residual = 8.23205e-06, Final residual = 8.44286e-18, No Iterations 1
Sb_error is = -0.000103472
Sb evaporation:  Min(Sb) = 0.259324 Max(Sb) = 0.549002
ExecutionTime = 5.82812 s  ClockTime = 8 s

End

